pglib_opf_case3012wp_k/pglib_opf_case3012wp_k_12regions.m
% -------------------------------------------------------------------------
% Partitioned MATPOWER Case File
% Copyright (c) 2025 Milad Hasanzadeh
% Generated on: 2025-06-06
% This file contains partitioned data for 12 regions


% -------------------- mpc_regionR1 --------------------

mpc_regionR1.version = '2';
mpc_regionR1.baseMVA = 100.0000;
mpc_regionR1.bus = [
%	bus_i       type        Pd          Qd          Gs          Bs          area        Vm          Va          baseKV      zone        Vmax        Vmin        
	 1	 1	 0	 0	 0	 0	 1	 1.03	 0	 220	 3	 1.11	 0.95;
	 2	 1	 0	 0	 0	 0	 1	 1.03	 0	 220	 3	 1.11	 0.95;
	 3	 1	 0	 0	 0	 0	 1	 1.03	 0	 220	 3	 1.11	 0.95;
	 4	 2	 7.03	 18.09	 0	 0	 1	 1.03	 0	 220	 3	 1.11	 0.95;
	 5	 1	 0	 0	 0	 0	 1	 1	 0	 400	 3	 1.05	 0.95;
	 6	 1	 0	 0	 0	 0	 1	 1	 0	 400	 3	 1.05	 0.95;
	 7	 1	 0	 0	 0	 0	 1	 1	 0	 400	 3	 1.05	 0.95;
	 8	 1	 0	 0	 0	 0	 1	 1	 0	 400	 3	 1.05	 0.95;
	 9	 2	 28.13	 66.31	 0	 0	 1	 1	 0	 400	 3	 1.05	 0.95;
	 10	 1	 0	 0	 0	 0	 1	 1	 0	 400	 3	 1.05	 0.95;
	 11	 1	 0	 0	 0	 0	 1	 1.03	 0	 220	 3	 1.11	 0.95;
	 12	 1	 0	 0	 0	 0	 1	 1.03	 0	 220	 3	 1.11	 0.95;
	 13	 1	 5.38	 1.94	 0	 0	 1	 1.035	 0	 110	 3	 1.12	 0.95;
	 14	 1	 0	 0	 0	 0	 1	 1.035	 0	 110	 3	 1.12	 0.95;
	 15	 1	 8.56	 3.87	 0	 0	 1	 1.035	 0	 110	 3	 1.12	 0.95;
	 16	 1	 0	 0	 0	 0	 1	 1.035	 0	 110	 3	 1.12	 0.95;
	 17	 1	 11.62	 4.35	 0	 0	 1	 1.035	 0	 110	 3	 1.12	 0.95;
	 18	 1	 8.21	 3.02	 0	 0	 1	 1.035	 0	 110	 3	 1.12	 0.95;
	 19	 1	 4.22	 1.61	 0	 0	 1	 1.035	 0	 110	 3	 1.12	 0.95;
	 20	 1	 1.05	 0.44	 0	 0	 1	 1.035	 0	 110	 3	 1.12	 0.95;
	 21	 1	 0	 0	 0	 0	 1	 1.035	 0	 110	 3	 1.12	 0.95;
	 22	 1	 0	 0	 0	 0	 1	 1.035	 0	 110	 3	 1.12	 0.95;
	 23	 1	 14.05	 4.16	 0	 0	 1	 1.035	 0	 110	 3	 1.12	 0.95;
	 24	 1	 0	 0	 0	 0	 1	 1.035	 0	 110	 3	 1.12	 0.95;
	 25	 1	 7.26	 1.07	 0	 0	 1	 1.035	 0	 110	 3	 1.12	 0.95;
	 26	 1	 1.52	 0.11	 0	 0	 1	 1.035	 0	 110	 3	 1.12	 0.95;
	 27	 1	 0	 0	 0	 0	 1	 1.035	 0	 110	 3	 1.12	 0.95;
	 28	 2	 12.37	 7.52	 0	 0	 1	 1.035	 0	 110	 3	 1.12	 0.95;
	 29	 2	 2.01	 4.02	 0	 0	 1	 1.035	 0	 110	 3	 1.12	 0.95;
	 30	 1	 5.87	 2.75	 0	 0	 1	 1.035	 0	 110	 3	 1.12	 0.95;
	 31	 1	 0	 0	 0	 0	 1	 1.035	 0	 110	 3	 1.12	 0.95;
	 32	 1	 6.09	 2.28	 0	 0	 1	 1.035	 0	 110	 3	 1.12	 0.95;
	 33	 1	 0	 0	 0	 0	 1	 1.035	 0	 110	 3	 1.12	 0.95;
	 34	 1	 0	 0	 0	 0	 1	 1.035	 0	 110	 3	 1.12	 0.95;
	 35	 1	 0	 0	 0	 0	 1	 1.035	 0	 110	 3	 1.12	 0.95;
	 36	 1	 13	 4.78	 0	 0	 1	 1.035	 0	 110	 3	 1.12	 0.95;
	 37	 1	 0	 0.04	 0	 0	 1	 1.035	 0	 110	 3	 1.12	 0.95;
	 38	 1	 0	 0	 0	 0	 1	 1.035	 0	 110	 3	 1.12	 0.95;
	 39	 1	 5.14	 1.71	 0	 0	 1	 1.035	 0	 110	 3	 1.12	 0.95;
	 40	 1	 0	 0	 0	 0	 1	 1.035	 0	 110	 3	 1.12	 0.95;
	 41	 1	 1.17	 1.13	 0	 0	 1	 1.035	 0	 110	 3	 1.12	 0.95;
	 42	 1	 4.22	 4.04	 0	 0	 1	 1.035	 0	 110	 3	 1.12	 0.95;
	 43	 1	 6.1	 2.49	 0	 0	 1	 1.035	 0	 110	 3	 1.12	 0.95;
	 44	 1	 13.01	 2.35	 0	 0	 1	 1.035	 0	 110	 3	 1.12	 0.95;
	 45	 1	 0	 0	 0	 0	 1	 1.035	 0	 110	 3	 1.12	 0.95;
	 46	 1	 0	 0	 0	 0	 1	 1.035	 0	 110	 3	 1.12	 0.95;
	 47	 1	 6.56	 0.61	 0	 0	 1	 1.035	 0	 110	 3	 1.12	 0.95;
	 48	 1	 6.44	 0.89	 0	 0	 1	 1.035	 0	 110	 3	 1.12	 0.95;
	 49	 1	 7.61	 0.93	 0	 0	 1	 1.035	 0	 110	 3	 1.12	 0.95;
	 50	 1	 6.78	 2.17	 0	 0	 1	 1.035	 0	 110	 3	 1.12	 0.95;
	 51	 1	 3.98	 1.25	 0	 0	 1	 1.035	 0	 110	 3	 1.12	 0.95;
	 52	 1	 4.09	 1.37	 0	 0	 1	 1.035	 0	 110	 3	 1.12	 0.95;
	 53	 1	 4.91	 1.6	 0	 0	 1	 1.035	 0	 110	 3	 1.12	 0.95;
	 54	 1	 3.04	 0.8	 0	 0	 1	 1.035	 0	 110	 3	 1.12	 0.95;
	 55	 1	 0	 0	 0	 0	 1	 1.035	 0	 110	 3	 1.12	 0.95;
	 56	 1	 0	 0	 0	 0	 1	 1.035	 0	 110	 3	 1.12	 0.95;
	 57	 1	 0	 0	 0	 0	 1	 1.035	 0	 110	 3	 1.12	 0.95;
	 58	 1	 0.94	 0.35	 0	 0	 1	 1.035	 0	 110	 3	 1.12	 0.95;
	 59	 1	 0	 0	 0	 0	 1	 1.035	 0	 110	 3	 1.12	 0.95;
	 60	 1	 6.44	 4.17	 0	 0	 1	 1.035	 0	 110	 3	 1.12	 0.95;
	 61	 1	 0	 0	 0	 0	 1	 1.035	 0	 110	 3	 1.12	 0.95;
	 62	 1	 7.02	 3.88	 0	 0	 1	 1.035	 0	 110	 3	 1.12	 0.95;
	 63	 1	 3.16	 0	 0	 0	 1	 1.035	 0	 110	 3	 1.12	 0.95;
	 64	 1	 9.86	 5.42	 0	 0	 1	 1.035	 0	 110	 3	 1.12	 0.95;
	 65	 1	 0	 0	 0	 0	 1	 1.035	 0	 110	 3	 1.12	 0.95;
	 66	 1	 9.35	 3.08	 0	 0	 1	 1.035	 0	 110	 3	 1.12	 0.95;
	 67	 1	 9.35	 2.97	 0	 0	 1	 1.035	 0	 110	 3	 1.12	 0.95;
	 68	 1	 0	 0	 0	 0	 1	 1.035	 0	 110	 3	 1.12	 0.95;
	 69	 1	 0	 0	 0	 0	 1	 1.035	 0	 110	 3	 1.12	 0.95;
	 70	 1	 2.22	 0.68	 0	 0	 1	 1.035	 0	 110	 3	 1.12	 0.95;
	 71	 1	 1.64	 0.57	 0	 0	 1	 1.035	 0	 110	 3	 1.12	 0.95;
	 72	 1	 9.13	 3.14	 0	 0	 1	 1.035	 0	 110	 3	 1.12	 0.95;
	 73	 1	 0	 0	 0	 0	 1	 1.035	 0	 110	 3	 1.12	 0.95;
	 74	 1	 6.79	-0.81	 0	 0	 1	 1.035	 0	 110	 3	 1.12	 0.95;
	 75	 2	 5.78	 7.92	 0	 0	 1	 1.035	 0	 110	 3	 1.12	 0.95;
	 76	 1	 24.32	 6.98	 0	 0	 1	 1.035	 0	 110	 3	 1.12	 0.95;
	 77	 1	 3.28	 0.4	 0	 0	 1	 1.035	 0	 110	 3	 1.12	 0.95;
	 78	 1	 7.03	 3.45	 0	 0	 1	 1.035	 0	 110	 3	 1.12	 0.95;
	 79	 2	 109.52	 51.24	 0	 0	 1	 1.035	 0	 110	 3	 1.12	 0.95;
	 80	 1	 10.52	 4.56	 0	 0	 1	 1.035	 0	 110	 3	 1.12	 0.95;
	 81	 1	 0	 0	 0	 0	 1	 1.035	 0	 110	 3	 1.12	 0.95;
	 82	 1	 0	 0	 0	 0	 1	 1.035	 0	 110	 3	 1.12	 0.95;
	 83	 1	 1.64	 0.57	 0	 0	 1	 1.035	 0	 110	 3	 1.12	 0.95;
	 84	 1	 0.58	 0.34	 0	 0	 1	 1.035	 0	 110	 3	 1.12	 0.95;
	 85	 1	 15.2	 4.79	 0	 0	 1	 1.035	 0	 110	 3	 1.12	 0.95;
	 86	 1	 9.59	 4.22	 0	 0	 1	 1.035	 0	 110	 3	 1.12	 0.95;
	 87	 1	 0.82	 0.35	 0	 0	 1	 1.035	 0	 110	 3	 1.12	 0.95;
	 88	 1	 0	 0	 0	 0	 1	 1.035	 0	 110	 3	 1.12	 0.95;
	 89	 1	 4.21	 2.38	 0	 0	 1	 1.035	 0	 110	 3	 1.12	 0.95;
	 90	 1	 11.47	 4.9	 0	 0	 1	 1.035	 0	 110	 3	 1.12	 0.95;
	 91	 1	 5.85	 1.94	 0	 0	 1	 1.035	 0	 110	 3	 1.12	 0.95;
	 92	 1	 0	 0	 0	 0	 1	 1.035	 0	 110	 3	 1.12	 0.95;
	 93	 2	 0.01	 0.01	 0	 0	 1	 1.035	 0	 110	 3	 1.12	 0.95;
	 94	 2	 90.54	 33.94	 0	 0	 1	 1.035	 0	 110	 3	 1.12	 0.95;
	 95	 1	 1.4	 0.23	 0	 0	 1	 1.035	 0	 110	 3	 1.12	 0.95;
	 96	 1	 0	 0	 0	 0	 1	 1.035	 0	 110	 3	 1.12	 0.95;
	 97	 1	 1.87	 0.95	 0	 0	 1	 1.035	 0	 110	 3	 1.12	 0.95;
	 98	 1	 0	 0	 0	 0	 1	 1.035	 0	 110	 3	 1.12	 0.95;
	 99	 1	 6.31	 2.17	 0	 0	 1	 1.035	 0	 110	 3	 1.12	 0.95;
	 100	 1	 10.41	 5.25	 0	 0	 1	 1.035	 0	 110	 3	 1.12	 0.95;
	 101	 1	 0	 0	 0	 0	 1	 1.035	 0	 110	 3	 1.12	 0.95;
	 102	 1	 14.75	 4.62	 0	 0	 1	 1.035	 0	 110	 3	 1.12	 0.95;
	 103	 1	 0	 0	 0	 0	 1	 1.035	 0	 110	 3	 1.12	 0.95;
	 104	 1	 1.29	 0.34	 0	 0	 1	 1.035	 0	 110	 3	 1.12	 0.95;
	 105	 1	 1.52	 0.58	 0	 0	 1	 1.035	 0	 110	 3	 1.12	 0.95;
	 106	 1	 3.28	 1.22	 0	 0	 1	 1.035	 0	 110	 3	 1.12	 0.95;
	 107	 1	 1.64	 0.67	 0	 0	 1	 1.035	 0	 110	 3	 1.12	 0.95;
	 108	 1	 0	 0	 0	 0	 1	 1.035	 0	 110	 3	 1.12	 0.95;
	 109	 1	 0	 0	 0	 0	 1	 1.035	 0	 110	 3	 1.12	 0.95;
	 110	 1	 1.99	 0.58	 0	 0	 1	 1.035	 0	 110	 3	 1.12	 0.95;
	 111	 1	 1.76	 0.44	 0	 0	 1	 1.035	 0	 110	 3	 1.12	 0.95;
	 112	 1	 9.82	 3.88	 0	 0	 1	 1.035	 0	 110	 3	 1.12	 0.95;
	 113	 1	 0	 0	 0	 0	 1	 1.035	 0	 110	 3	 1.12	 0.95;
	 114	 1	 8.89	 3.11	 0	 0	 1	 1.035	 0	 110	 3	 1.12	 0.95;
	 115	 1	 0	 0	 0	 0	 1	 1.035	 0	 110	 3	 1.12	 0.95;
	 116	 1	 0	 0	 0	 0	 1	 1.035	 0	 110	 3	 1.12	 0.95;
	 117	 1	 1.87	 0.58	 0	 0	 1	 1.035	 0	 110	 3	 1.12	 0.95;
	 118	 1	 0	 0	 0	 0	 1	 1.035	 0	 110	 3	 1.12	 0.95;
	 119	 1	 0	 0	 0	 0	 1	 1.035	 0	 110	 3	 1.12	 0.95;
	 120	 1	 0	 0	 0	 0	 1	 1.035	 0	 110	 3	 1.12	 0.95;
	 121	 1	 8.34	 2.27	 0	 0	 1	 1.035	 0	 110	 3	 1.12	 0.95;
	 122	 1	 3.51	 1.32	 0	 0	 1	 1.035	 0	 110	 3	 1.12	 0.95;
	 123	 1	 6.44	 2.41	 0	 0	 1	 1.035	 0	 110	 3	 1.12	 0.95;
	 124	 1	 9.71	-0.3	 0	 0	 1	 1.035	 0	 110	 3	 1.12	 0.95;
	 125	 1	 0	 0	 0	 0	 1	 1.035	 0	 110	 3	 1.12	 0.95;
	 126	 1	 10.88	 4.72	 0	 0	 1	 1.035	 0	 110	 3	 1.12	 0.95;
	 127	 1	 3.16	 1.17	 0	 0	 1	 1.035	 0	 110	 3	 1.12	 0.95;
	 128	 2	 12.65	 16.38	 0	 0	 1	 1.035	 0	 110	 3	 1.12	 0.95;
	 129	 1	 9.61	 0.16	 0	 0	 1	 1.035	 0	 110	 3	 1.12	 0.95;
	 130	 1	 9.14	 1.11	 0	 0	 1	 1.035	 0	 110	 3	 1.12	 0.95;
	 131	 1	 0	 0	 0	 0	 1	 1.035	 0	 110	 3	 1.12	 0.95;
	 132	 1	 0	 0	 0	 0	 1	 1.035	 0	 110	 3	 1.12	 0.95;
	 133	 1	 4.69	 2.14	 0	 0	 1	 1.035	 0	 110	 3	 1.12	 0.95;
	 134	 1	 0	 0	 0	 0	 1	 1.035	 0	 110	 3	 1.12	 0.95;
	 135	 1	 5.51	 1.99	 0	 0	 1	 1.035	 0	 110	 3	 1.12	 0.95;
	 136	 1	 3.39	 1.25	 0	 0	 1	 1.035	 0	 110	 3	 1.12	 0.95;
	 137	 1	 0	 0	 0	 0	 1	 1.035	 0	 110	 3	 1.12	 0.95;
	 138	 1	 0	 0	 0	 0	 1	 1.035	 0	 110	 3	 1.12	 0.95;
	 139	 1	 0	 0	 0	 0	 1	 1.035	 0	 110	 3	 1.12	 0.95;
	 140	 1	 0	 0	 0	 0	 1	 1.035	 0	 110	 3	 1.12	 0.95;
	 141	 1	 0	 0	 0	 0	 1	 1.035	 0	 110	 3	 1.12	 0.95;
	 142	 2	 4.02	 4.02	 0	 0	 1	 1.035	 0	 110	 3	 1.12	 0.95;
	 143	 1	 8.07	 0.77	 0	 0	 1	 1.035	 0	 110	 3	 1.12	 0.95;
	 144	 1	 3.98	 0.18	 0	 0	 1	 1.035	 0	 110	 3	 1.12	 0.95;
	 145	 1	 12.06	 6.56	 0	 0	 1	 1.035	 0	 110	 3	 1.12	 0.95;
	 146	 1	 0	 0	 0	 0	 1	 1.035	 0	 110	 3	 1.12	 0.95;
	 147	 1	 0	 0.1	 0	 0	 1	 1.035	 0	 110	 3	 1.12	 0.95;
	 148	 1	 0	 0	 0	 0	 1	 1.035	 0	 110	 3	 1.12	 0.95;
	 149	 1	 8.19	 1.43	 0	 0	 1	 1.035	 0	 110	 3	 1.12	 0.95;
	 150	 1	 4.44	 1.54	 0	 0	 1	 1.035	 0	 110	 3	 1.12	 0.95;
	 151	 1	 1.29	 0.62	 0	 0	 1	 1.035	 0	 110	 3	 1.12	 0.95;
	 152	 1	 1.64	 0.71	 0	 0	 1	 1.035	 0	 110	 3	 1.12	 0.95;
	 153	 1	 5.62	 1.15	 0	 0	 1	 1.035	 0	 110	 3	 1.12	 0.95;
	 154	 1	 0	 0	 0	 0	 1	 1.035	 0	 110	 3	 1.12	 0.95;
	 155	 1	 0	 0	 0	 0	 1	 1.035	 0	 110	 3	 1.12	 0.95;
	 156	 1	 5.62	 2.12	 0	 0	 1	 1.035	 0	 110	 3	 1.12	 0.95;
	 157	 1	 2.11	 0.93	 0	 0	 1	 1.035	 0	 110	 3	 1.12	 0.95;
	 158	 1	 0	 0	 0	 0	 1	 1.035	 0	 110	 3	 1.12	 0.95;
	 159	 1	 0	 0	 0	 0	 1	 1.035	 0	 110	 3	 1.12	 0.95;
	 160	 1	 6.44	 1.54	 0	 0	 1	 1.035	 0	 110	 3	 1.12	 0.95;
	 161	 1	 0	 0	 0	 0	 1	 1.035	 0	 110	 3	 1.12	 0.95;
	 162	 1	 10.52	 4.17	 0	 0	 1	 1.035	 0	 110	 3	 1.12	 0.95;
	 163	 1	 0	 0	 0	 0	 1	 1.035	 0	 110	 3	 1.12	 0.95;
	 164	 1	 21.9	 7.18	 0	 0	 1	 1.035	 0	 110	 3	 1.12	 0.95;
	 165	 1	 0	 0	 0	 0	 1	 1.035	 0	 110	 3	 1.12	 0.95;
	 166	 1	 0	 0	 0	 0	 1	 1.035	 0	 110	 3	 1.12	 0.95;
	 167	 1	 0	 0	 0	 0	 1	 1.035	 0	 110	 3	 1.12	 0.95;
	 168	 1	 11.15	 1.88	 0	 0	 1	 1.035	 0	 110	 3	 1.12	 0.95;
	 169	 1	 0	 0	 0	 0	 1	 1.035	 0	 110	 3	 1.12	 0.95;
	 170	 1	 7.72	 0.58	 0	 0	 1	 1.035	 0	 110	 3	 1.12	 0.95;
	 171	 1	 3.74	 1.48	 0	 0	 1	 1.035	 0	 110	 3	 1.12	 0.95;
	 172	 1	 0.58	 0.46	 0	 0	 1	 1.035	 0	 110	 3	 1.12	 0.95;
	 173	 1	 10.56	 4.22	 0	 0	 1	 1.035	 0	 110	 3	 1.12	 0.95;
	 174	 1	 4.92	 1.83	 0	 0	 1	 1.035	 0	 110	 3	 1.12	 0.95;
	 175	 1	 14.63	 5.76	 0	 0	 1	 1.035	 0	 110	 3	 1.12	 0.95;
	 176	 1	 0	 0	 0	 0	 1	 1.035	 0	 110	 3	 1.12	 0.95;
	 177	 1	 16.88	 6.99	 0	 0	 1	 1.035	 0	 110	 3	 1.12	 0.95;
	 178	 1	 0	 0	 0	 0	 1	 1.035	 0	 110	 3	 1.12	 0.95;
	 179	 1	 5.03	 1.41	 0	 0	 1	 1.035	 0	 110	 3	 1.12	 0.95;
	 180	 1	 0	 0	 0	 0	 1	 1.035	 0	 110	 3	 1.12	 0.95;
	 181	 1	 5.61	 2	 0	 0	 1	 1.035	 0	 110	 3	 1.12	 0.95;
	 182	 1	 3.04	 0.71	 0	 0	 1	 1.035	 0	 110	 3	 1.12	 0.95;
	 183	 1	 9.38	 3.26	 0	 0	 1	 1.035	 0	 110	 3	 1.12	 0.95;
	 184	 1	 6.68	 2.43	 0	 0	 1	 1.035	 0	 110	 3	 1.12	 0.95;
	 185	 1	 0	 0	 0	 0	 1	 1.035	 0	 110	 3	 1.12	 0.95;
	 186	 1	 0	 0	 0	 0	 1	 1.035	 0	 110	 3	 1.12	 0.95;
	 187	 1	 0	 0	 0	 0	 1	 1.035	 0	 110	 3	 1.12	 0.95;
	 188	 1	 8.31	 3.59	 0	 0	 1	 1.035	 0	 110	 3	 1.12	 0.95;
	 189	 1	 0	 0	 0	 0	 1	 1.035	 0	 110	 3	 1.12	 0.95;
	 190	 1	 10.54	 3.79	 0	 0	 1	 1.035	 0	 110	 3	 1.12	 0.95;
	 191	 1	 0	 0	 0	 0	 1	 1.035	 0	 110	 3	 1.12	 0.95;
	 192	 1	 13.58	 4.51	 0	 0	 1	 1.035	 0	 110	 3	 1.12	 0.95;
	 193	 1	 8.79	 3.91	 0	 0	 1	 1.035	 0	 110	 3	 1.12	 0.95;
	 194	 1	 5.27	 2.32	 0	 0	 1	 1.035	 0	 110	 3	 1.12	 0.95;
	 195	 1	 0	 0	 0	 0	 1	 1.035	 0	 110	 3	 1.12	 0.95;
	 196	 1	 0.35	 0	 0	 0	 1	 1.035	 0	 110	 3	 1.12	 0.95;
	 197	 1	 4.33	 1.48	 0	 0	 1	 1.035	 0	 110	 3	 1.12	 0.95;
	 198	 1	 15.32	 5.02	 0	 0	 1	 1.035	 0	 110	 3	 1.12	 0.95;
	 199	 1	 1.76	 0.8	 0	 0	 1	 1.035	 0	 110	 3	 1.12	 0.95;
	 200	 1	 2.11	 0.92	 0	 0	 1	 1.035	 0	 110	 3	 1.12	 0.95;
...
];

mpc_regionR1.gen = [
%	bus         Pg          Qg          Qmax        Qmin        Vg          mBase       status      Pmax        Pmin        Pc1         Pc2         Qc1min      Qc1max      Qc2min      Qc2max      ramp_agc    ramp_10     ramp_30     ramp_q      apf         
	 4	 95	 36	 73	-1	 1.03	 150	 1	 120	 70;
	 9	 180	 52	 140	-36	 1	 270.6	 1	 225	 135;
	 9	 177.5	 50.5	 137	-36	 1	 270.6	 1	 220	 135;
	 28	 0	 0	 45	-10	 1.035	 63	 0	 48	 40;
	 28	 48.5	 17.5	 45	-10	 1.035	 69	 1	 55	 42;
	 29	 48.5	 17.5	 45	-10	 1.035	 69	 1	 55	 42;
	 75	 44	 27.15	 37.5	 16.8	 1.035	 62.5	 1	 50	 38;
	 79	 0	 0	 0	 0	 1.035	 25	 0	 25	 10;
	 79	 0	 0	 0	 0	 1.035	 25	 0	 25	 10;
	 79	 17.5	 0	 0	 0	 1.035	 25	 1	 25	 10;
	 79	 17.5	 0	 0	 0	 1.035	 25	 1	 25	 10;
	 93	 0	 0	 0	 0	 1.035	 24	 0	 24	 5;
	 93	 10.25	 0	 0	 0	 1.035	 16.5	 1	 16.5	 4;
	 94	 8.8	 0	 0	 0	 1.035	 14.6	 1	 14.6	 3;
	 94	 0	 0	 0	 0	 1.035	 14.6	 0	 14.6	 3;
	 94	 0	 0	 0	 0	 1.035	 14.6	 0	 14.6	 3;
	 128	 95	 36	 73	-1	 1.035	 150	 1	 120	 70;
	 142	 0	 0	 41.2	-13.7	 1.035	 68.8	 0	 55	 15;
	 142	 0	 0	 33.5	 12	 1.035	 20	 0	 15	 0;
	 142	 35	 13.75	 41.2	-13.7	 1.035	 68.8	 1	 55	 15;
	 223	 180	 52.5	 140	-35	 1.035	 270.6	 1	 225	 135;
	 226	 0	 0	 26	 13	 1.035	 43.8	 0	 35	 18;
	 226	 4	 4.9	 8.3	 1.5	 1.035	 13.8	 1	 8	 0;
	 226	 21.5	 8.9	 12	 5.8	 1.035	 31.3	 1	 25	 18;
	 227	 0	 0	 26	 13	 1.035	 43.8	 0	 30	 18;
	 239	 0	 0	 46.86	-46.86	 1	 22373.8	 1	 0	 0;
];

mpc_regionR1.branch = [
%	fbus        tbus        r           x           b           rateA       rateB       rateC       ratio       angle       status      angmin      angmax      
	 9	 239	 0.00168	 0.01604	 0.51488	 724	 724	 724	 0	 0	 1	-30	 30;
	 12	 11	 0.00066	 0.00496	 0.00758	 356	 356	 356	 0	 0	 1	-30	 30;
	 4	 12	 0.00537	 0.04039	 0.06005	 356	 356	 356	 0	 0	 1	-30	 30;
	 7	 5	 0.00091	 0.0104	 0.28989	 789	 789	 789	 0	 0	 1	-30	 30;
	 5	 10	 0.00092	 0.01051	 0.29293	 789	 789	 789	 0	 0	 1	-30	 30;
	 28	 1	 0.00287	 0.10711	-0.00242	 100	 100	 100	 1.00972	 0	 1	-30	 30;
	 29	 2	 0.0014	 0.06927	-0.00532	 160	 160	 160	 0.99664	 0	 1	-30	 30;
	 94	 3	 0.0014	 0.06831	-0.00319	 160	 160	 160	 1.04745	 0	 1	-30	 30;
	 128	 4	 0.00174	 0.09356	-0.00339	 160	 160	 160	 0.98025	 0	 1	-30	 30;
	 185	 5	 0.00156	 0.06252	-0.00864	 250	 250	 250	 1.10237	 0	 1	-30	 30;
	 187	 5	 0.00156	 0.06292	-0.00864	 250	 250	 250	 1.06627	 0	 1	-30	 30;
	 214	 8	 0.00156	 0.06244	-0.00992	 250	 250	 250	 1.07415	 0	 1	-30	 30;
	 225	 11	 0.00143	 0.06551	-0.0029	 160	 160	 160	 1.01739	 0	 1	-30	 30;
	 81	 28	 0.03868	 0.10116	 0.0108	 99	 99	 99	 0	 0	 1	-30	 30;
	 178	 127	 0.00537	 0.01736	 0.00181	 114	 114	 114	 0	 0	 1	-30	 30;
	 29	 178	 0.03909	 0.09719	 0.01033	 99	 99	 99	 0	 0	 1	-30	 30;
	 177	 178	 8e-05	 0.00017	 2e-05	 97	 97	 97	 0	 0	 1	-30	 30;
	 118	 94	 0.01595	 0.04132	 0.00403	 99	 99	 99	 0	 0	 1	-30	 30;
	 197	 118	 0.03174	 0.08347	 0.00816	 99	 99	 99	 0	 0	 1	-30	 30;
	 116	 118	 0.0005	 0.00107	 0.00014	 29	 29	 29	 0	 0	 1	-30	 30;
	 119	 93	 0.01595	 0.0414	 0.00404	 99	 99	 99	 0	 0	 1	-30	 30;
	 198	 119	 0.03174	 0.08347	 0.00816	 99	 99	 99	 0	 0	 1	-30	 30;
	 117	 119	 0.0005	 0.00116	 0.00014	 29	 29	 29	 0	 0	 1	-30	 30;
	 230	 186	 0.04826	 0.12198	 0.0129	 99	 99	 99	 0	 0	 1	-30	 30;
	 185	 106	 0.04017	 0.10537	 0.01188	 99	 99	 99	 0	 0	 1	-30	 30;
	 88	 188	 0.00273	 0.00876	 0.0009	 114	 114	 114	 0	 0	 1	-30	 30;
	 128	 88	 0.0076	 0.02355	 0.00263	 114	 114	 114	 0	 0	 1	-30	 30;
	 87	 88	 0.00033	 0.00041	 9e-05	 76	 76	 76	 0	 0	 1	-30	 30;
	 27	 139	 0.01818	 0.04521	 0.0048	 102	 102	 102	 0	 0	 1	-30	 30;
	 225	 27	 0.02603	 0.06471	 0.00687	 102	 102	 102	 0	 0	 1	-30	 30;
	 97	 140	 0.01736	 0.04893	 0.00504	 102	 102	 102	 0	 0	 1	-30	 30;
	 163	 85	 0.00686	 0.02215	 0.00232	 114	 114	 114	 0	 0	 1	-30	 30;
	 61	 163	 0.0043	 0.01347	 0.00147	 114	 114	 114	 0	 0	 1	-30	 30;
	 128	 61	 0.00579	 0.01785	 0.00204	 114	 114	 114	 0	 0	 1	-30	 30;
	 162	 163	 0.00603	 0.01744	 0.0023	 113	 113	 113	 0	 0	 1	-30	 30;
	 61	 60	 0.00231	 0.00273	 0.00058	 74	 74	 74	 0	 0	 1	-30	 30;
	 230	 129	 0.04017	 0.06455	 0.0076	 77	 77	 77	 0	 0	 1	-30	 30;
	 131	 104	 0.0105	 0.02983	 0.00402	 112	 112	 112	 0	 0	 1	-30	 30;
	 90	 148	 0.02496	 0.03802	 0.00491	 78	 78	 78	 0	 0	 1	-30	 30;
	 205	 45	 0.02099	 0.05934	 0.00803	 75	 75	 75	 0	 0	 1	-30	 30;
	 204	 121	 0.03826	 0.04818	 0.00455	 57	 57	 57	 0	 0	 1	-30	 30;
	 123	 94	 0.02926	 0.0514	 0.00489	 77	 77	 77	 0	 0	 1	-30	 30;
	 161	 132	 0.01587	 0.05182	 0.00527	 114	 114	 114	 0	 0	 1	-30	 30;
	 130	 78	 0.02661	 0.03248	 0.00676	 75	 75	 75	 0	 0	 1	-30	 30;
	 225	 77	 0.04545	 0.05331	 0.01145	 74	 74	 74	 0	 0	 1	-30	 30;
	 180	 76	 8e-05	 0.00083	 1e-05	 78	 78	 78	 0	 0	 1	-30	 30;
	 225	 180	 0.00653	 0.01116	 0.0011	 78	 78	 78	 0	 0	 1	-30	 30;
	 180	 179	 0.00017	 0.00025	 3e-05	 78	 78	 78	 0	 0	 1	-30	 30;
	 168	 143	 0.03702	 0.0595	 0.00702	 78	 78	 78	 0	 0	 1	-30	 30;
	 160	 144	 0.01488	 0.02661	 0.00302	 78	 78	 78	 0	 0	 1	-30	 30;
	 129	 110	 0.0119	 0.03397	 0.00451	 112	 112	 112	 0	 0	 1	-30	 30;
	 111	 26	 0.00884	 0.02504	 0.00337	 112	 112	 112	 0	 0	 1	-30	 30;
	 98	 225	 0.04058	 0.10669	 0.01117	 102	 102	 102	 0	 0	 1	-30	 30;
	 225	 169	 0.01752	 0.03033	 0.00327	 78	 78	 78	 0	 0	 1	-30	 30;
	 147	 160	 0.00215	 0.00603	 0.00063	 78	 78	 78	 0	 0	 1	-30	 30;
	 190	 122	 0.04025	 0.07132	 0.00662	 72	 72	 72	 0	 0	 1	-30	 30;
	 155	 190	 0.02702	 0.05752	 0.00544	 72	 72	 72	 0	 0	 1	-30	 30;
	 174	 155	 0.00066	 0.00107	 0.00018	 72	 72	 72	 0	 0	 1	-30	 30;
	 153	 155	 0.00017	 0.00041	 5e-05	 104	 104	 104	 0	 0	 1	-30	 30;
	 43	 190	 0.02256	 0.04314	 0.004	 75	 75	 75	 0	 0	 1	-30	 30;
	 137	 186	 0.00893	 0.02926	 0.00295	 114	 114	 114	 0	 0	 1	-30	 30;
	 149	 137	 0.00496	 0.01612	 0.00164	 114	 114	 114	 0	 0	 1	-30	 30;
	 135	 137	 0.00231	 0.00388	 0.00039	 72	 72	 72	 0	 0	 1	-30	 30;
	 68	 185	 0.00083	 0.00256	 0.00027	 114	 114	 114	 0	 0	 1	-30	 30;
	 17	 68	 0.00793	 0.02595	 0.00262	 114	 114	 114	 0	 0	 1	-30	 30;
	 66	 68	 0.00025	 0.00058	 8e-05	 102	 102	 102	 0	 0	 1	-30	 30;
	 142	 186	 0.00802	 0.02471	 0.0025	 97	 97	 97	 0	 0	 1	-30	 30;
	 141	 185	 0.0081	 0.0257	 0.00258	 97	 97	 97	 0	 0	 1	-30	 30;
	 187	 207	 0.01446	 0.04132	 0.0055	 112	 112	 112	 0	 0	 1	-30	 30;
	 191	 198	 0.01008	 0.03182	 0.00345	 114	 114	 114	 0	 0	 1	-30	 30;
	 223	 190	 0.0119	 0.03686	 0.00418	 114	 114	 114	 0	 0	 1	-30	 30;
	 80	 41	 0.00421	 0.01355	 0.0014	 114	 114	 114	 0	 0	 1	-30	 30;
	 202	 103	 0.00521	 0.01496	 0.00198	 113	 113	 113	 0	 0	 1	-30	 30;
	 69	 145	 0.0081	 0.02066	 0.00231	 97	 97	 97	 0	 0	 1	-30	 30;
	 186	 69	 0.0005	 0.00157	 0.00016	 97	 97	 97	 0	 0	 1	-30	 30;
	 69	 67	 0.00091	 0.00264	 0.00036	 57	 57	 57	 0	 0	 1	-30	 30;
	 166	 203	 0.0038	 0.01231	 0.00124	 114	 114	 114	 0	 0	 1	-30	 30;
	 138	 166	 0.00669	 0.02198	 0.00222	 116	 116	 116	 0	 0	 1	-30	 30;
	 18	 138	 0.00446	 0.01463	 0.00148	 114	 114	 114	 0	 0	 1	-30	 30;
	 166	 164	 0.00116	 0.00256	 0.00025	 72	 72	 72	 0	 0	 1	-30	 30;
	 136	 138	 0.00231	 0.00388	 0.00039	 72	 72	 72	 0	 0	 1	-30	 30;
	 202	 82	 0.00446	 0.01455	 0.00149	 114	 114	 114	 0	 0	 1	-30	 30;
	 96	 75	 0.00107	 0.00339	 0.00038	 114	 114	 114	 0	 0	 1	-30	 30;
	 221	 96	 0.00455	 0.01355	 0.00164	 114	 114	 114	 0	 0	 1	-30	 30;
	 96	 95	 0.00116	 0.0014	 0.0003	 72	 72	 72	 0	 0	 1	-30	 30;
	 34	 75	 0.00107	 0.00339	 0.00038	 114	 114	 114	 0	 0	 1	-30	 30;
	 229	 34	 0.00388	 0.01207	 0.00134	 114	 114	 114	 0	 0	 1	-30	 30;
	 32	 34	 0.00066	 0.00182	 0.00024	 111	 111	 111	 0	 0	 1	-30	 30;
	 101	 75	 0.00934	 0.0257	 0.00253	 97	 97	 97	 0	 0	 1	-30	 30;
	 197	 101	 0.0057	 0.01479	 0.0015	 97	 97	 97	 0	 0	 1	-30	 30;
	 101	 99	 0.00554	 0.00959	 0.00095	 72	 72	 72	 0	 0	 1	-30	 30;
	 113	 75	 0.01504	 0.04033	 0.00401	 97	 97	 97	 0	 0	 1	-30	 30;
	 198	 113	 8e-05	 0.00025	 2e-05	 114	 114	 114	 0	 0	 1	-30	 30;
	 112	 113	 0.00017	 0.00041	 6e-05	 104	 104	 104	 0	 0	 1	-30	 30;
	 57	 227	 0.00149	 0.00496	 0.0005	 84	 84	 84	 0	 0	 1	-30	 30;
	 146	 57	 0.00496	 0.01306	 0.00151	 97	 97	 97	 0	 0	 1	-30	 30;
	 56	 57	 0.00066	 0.00198	 0.00026	 114	 114	 114	 0	 0	 1	-30	 30;
	 212	 139	 0.01008	 0.02496	 0.00265	 97	 97	 97	 0	 0	 1	-30	 30;
	 220	 212	 0.0119	 0.03008	 0.0032	 97	 97	 97	 0	 0	 1	-30	 30;
	 210	 212	 0.00438	 0.00545	 0.00081	 75	 75	 75	 0	 0	 1	-30	 30;
	 213	 140	 0.01008	 0.02496	 0.00265	 97	 97	 97	 0	 0	 1	-30	 30;
	 176	 213	 0.00826	 0.02132	 0.00242	 97	 97	 97	 0	 0	 1	-30	 30;
	 211	 213	 0.00413	 0.00479	 0.00072	 73	 73	 73	 0	 0	 1	-30	 30;
	 139	 83	 0.00306	 0.00355	 0.00076	 72	 72	 72	 0	 0	 1	-30	 30;
	 140	 84	 0.00314	 0.00364	 0.00078	 72	 72	 72	 0	 0	 1	-30	 30;
	 55	 184	 0.00107	 0.00298	 0.0004	 111	 111	 111	 0	 0	 1	-30	 30;
	 197	 55	 0.00182	 0.00529	 0.00071	 113	 113	 113	 0	 0	 1	-30	 30;
	 55	 54	 0.00058	 0.00157	 0.00021	 110	 110	 110	 0	 0	 1	-30	 30;
	 21	 141	 0.00198	 0.00612	 0.00068	 114	 114	 114	 0	 0	 1	-30	 30;
	 227	 21	 0.00496	 0.01545	 0.00171	 114	 114	 114	 0	 0	 1	-30	 30;
	 21	 19	 0.00107	 0.0019	 0.00019	 72	 72	 72	 0	 0	 1	-30	 30;
	 92	 142	 0.00231	 0.00752	 0.00079	 114	 114	 114	 0	 0	 1	-30	 30;
	 182	 92	 0.0057	 0.01818	 0.00196	 114	 114	 114	 0	 0	 1	-30	 30;
	 91	 92	 8e-05	 0.00017	 2e-05	 97	 97	 97	 0	 0	 1	-30	 30;
	 158	 13	 0.00364	 0.01149	 0.00123	 114	 114	 114	 0	 0	 1	-30	 30;
	 23	 158	 0.00157	 0.00463	 0.00057	 114	 114	 114	 0	 0	 1	-30	 30;
	 158	 156	 0.00231	 0.00694	 0.00072	 97	 97	 97	 0	 0	 1	-30	 30;
	 208	 53	 0.0019	 0.0057	 0.00061	 97	 97	 97	 0	 0	 1	-30	 30;
	 22	 209	 0.0057	 0.01744	 0.00187	 97	 97	 97	 0	 0	 1	-30	 30;
	 227	 22	 0.00496	 0.01545	 0.00171	 114	 114	 114	 0	 0	 1	-30	 30;
	 22	 20	 0.00107	 0.0019	 0.00019	 72	 72	 72	 0	 0	 1	-30	 30;
	 208	 141	 0.00545	 0.01702	 0.00187	 114	 114	 114	 0	 0	 1	-30	 30;
	 204	 173	 0.00727	 0.00975	 0.00189	 72	 72	 72	 0	 0	 1	-30	 30;
	 115	 171	 0.01926	 0.06198	 0.00647	 114	 114	 114	 0	 0	 1	-30	 30;
	 223	 115	 0.01041	 0.03388	 0.00346	 114	 114	 114	 0	 0	 1	-30	 30;
	 114	 115	 0.00165	 0.00537	 0.00054	 114	 114	 114	 0	 0	 1	-30	 30;
	 154	 205	 0.0124	 0.02793	 0.00267	 72	 72	 72	 0	 0	 1	-30	 30;
	 214	 89	 0.01711	 0.05562	 0.0056	 99	 99	 99	 0	 0	 1	-30	 30;
	 200	 128	 0.00579	 0.01446	 0.00162	 99	 99	 99	 0	 0	 1	-30	 30;
	 90	 128	 0.03413	 0.08545	 0.00909	 99	 99	 99	 0	 0	 1	-30	 30;
	 90	 236	 0.0062	 0.01562	 0.00277	 106	 106	 106	 0	 0	 1	-30	 30;
	 132	 235	 0.00124	 0.00355	 0.00045	 113	 113	 113	 0	 0	 1	-30	 30;
	 195	 199	 0.00769	 0.01934	 0.00211	 99	 99	 99	 0	 0	 1	-30	 30;
	 193	 195	 0.01248	 0.03545	 0.00474	 112	 112	 112	 0	 0	 1	-30	 30;
	 89	 15	 0.00488	 0.01231	 0.00189	 99	 99	 99	 0	 0	 1	-30	 30;
	 89	 58	 0.00405	 0.01331	 0.00135	 114	 114	 114	 0	 0	 1	-30	 30;
	 59	 194	 0.01025	 0.02926	 0.0039	 112	 112	 112	 0	 0	 1	-30	 30;
	 233	 231	 0.00149	 0.00446	 0.00057	 114	 114	 114	 0	 0	 1	-30	 30;
	 151	 131	 0.00628	 0.01959	 0.00217	 114	 114	 114	 0	 0	 1	-30	 30;
	 152	 132	 0.0062	 0.01942	 0.00215	 114	 114	 114	 0	 0	 1	-30	 30;
	 131	 232	 0.00083	 0.00248	 0.00027	 114	 114	 114	 0	 0	 1	-30	 30;
	 16	 234	 0.00074	 0.00223	 0.0003	 114	 114	 114	 0	 0	 1	-30	 30;
	 237	 132	 0.00198	 0.00529	 0.00071	 99	 99	 99	 0	 0	 1	-30	 30;
	 89	 30	 0.00455	 0.01289	 0.00174	 112	 112	 112	 0	 0	 1	-30	 30;
	 134	 214	 0.01471	 0.03025	 0.00563	 96	 96	 96	 0	 0	 1	-30	 30;
	 90	 134	 0.00992	 0.01661	 0.00395	 87	 87	 87	 0	 0	 1	-30	 30;
	 134	 133	 0.00223	 0.00562	 0.0006	 99	 99	 99	 0	 0	 1	-30	 30;
	 238	 31	 0.00603	 0.01711	 0.00231	 112	 112	 112	 0	 0	 1	-30	 30;
	 224	 214	 0.00372	 0.01231	 0.00124	 114	 114	 114	 0	 0	 1	-30	 30;
	 38	 214	 0.00207	 0.01413	 0.00162	 114	 114	 114	 0	 0	 1	-30	 30;
	 79	 38	 8e-05	 0.00066	 7e-05	 114	 114	 114	 0	 0	 1	-30	 30;
	 36	 38	 0.0005	 0.00149	 0.0096	 114	 114	 114	 0	 0	 1	-30	 30;
	 125	 28	 0.01636	 0.04132	 0.0045	 99	 99	 99	 0	 0	 1	-30	 30;
	 47	 125	 0.03727	 0.06678	 0.00651	 77	 77	 77	 0	 0	 1	-30	 30;
	 124	 125	 0.00058	 0.00099	 0.0001	 29	 29	 29	 0	 0	 1	-30	 30;
	 94	 28	 0.00719	 0.02248	 0.00246	 114	 114	 114	 0	 0	 1	-30	 30;
	 93	 29	 0.00719	 0.02256	 0.00247	 114	 114	 114	 0	 0	 1	-30	 30;
	 230	 107	 0.02579	 0.06736	 0.0079	 99	 99	 99	 0	 0	 1	-30	 30;
	 230	 196	 0.00165	 0.00347	 0.00038	 77	 77	 77	 0	 0	 1	-30	 30;
	 170	 64	 0.05025	 0.07843	 0.00941	 57	 57	 57	 0	 0	 1	-30	 30;
	 120	 65	 0.05347	 0.06785	 0.00635	 57	 57	 57	 0	 0	 1	-30	 30;
	 48	 29	 0.00752	 0.02207	 0.00251	 99	 99	 99	 0	 0	 1	-30	 30;
	 74	 46	 0.08231	 0.14521	 0.01396	 57	 57	 57	 0	 0	 1	-30	 30;
	 44	 49	 0.05843	 0.0805	 0.00897	 64	 64	 64	 0	 0	 1	-30	 30;
	 170	 74	 0.03124	 0.10182	 0.01034	 57	 57	 57	 0	 0	 1	-30	 30;
	 175	 141	 0.00959	 0.02587	 0.00288	 97	 97	 97	 0	 0	 1	-30	 30;
	 183	 215	 0.00264	 0.00744	 0.001	 112	 112	 112	 0	 0	 1	-30	 30;
	 187	 226	 0.01231	 0.03215	 0.00338	 97	 97	 97	 0	 0	 1	-30	 30;
	 167	 150	 0.0019	 0.00612	 0.00062	 114	 114	 114	 0	 0	 1	-30	 30;
	 203	 167	 0.00355	 0.01165	 0.00118	 114	 114	 114	 0	 0	 1	-30	 30;
	 167	 165	 0.00132	 0.00322	 0.00031	 72	 72	 72	 0	 0	 1	-30	 30;
	 139	 51	 0.00083	 0.00231	 0.00031	 111	 111	 111	 0	 0	 1	-30	 30;
	 159	 86	 0.00322	 0.01025	 0.00109	 114	 114	 114	 0	 0	 1	-30	 30;
	 181	 159	 0.00372	 0.0114	 0.00133	 114	 114	 114	 0	 0	 1	-30	 30;
	 157	 159	 0.0024	 0.00719	 0.00074	 97	 97	 97	 0	 0	 1	-30	 30;
	 206	 50	 0.01281	 0.03661	 0.00485	 112	 112	 112	 0	 0	 1	-30	 30;
	 75	 62	 0.00496	 0.0162	 0.00164	 114	 114	 114	 0	 0	 1	-30	 30;
	 75	 63	 0.00339	 0.00959	 0.00129	 112	 112	 112	 0	 0	 1	-30	 30;
	 109	 209	 0.00017	 0.00058	 6e-05	 114	 114	 114	 0	 0	 1	-30	 30;
	 142	 109	 0.00529	 0.01645	 0.00181	 114	 114	 114	 0	 0	 1	-30	 30;
	 108	 109	 0.00421	 0.00711	 0.00072	 72	 72	 72	 0	 0	 1	-30	 30;
	 35	 75	 0.00041	 0.00132	 0.00013	 114	 114	 114	 0	 0	 1	-30	 30;
	 40	 35	 0.00273	 0.00785	 0.00077	 97	 97	 97	 0	 0	 1	-30	 30;
	 73	 40	 0.00438	 0.01438	 0.00145	 116	 116	 116	 0	 0	 1	-30	 30;
	 100	 73	 0.00033	 0.00099	 0.00013	 114	 114	 114	 0	 0	 1	-30	 30;
	 33	 35	 0.00124	 0.00364	 0.00048	 114	 114	 114	 0	 0	 1	-30	 30;
	 40	 39	 0.00339	 0.01107	 0.00112	 114	 114	 114	 0	 0	 1	-30	 30;
	 72	 73	 0.00223	 0.00678	 0.00081	 114	 114	 114	 0	 0	 1	-30	 30;
	 226	 222	 0.0076	 0.02306	 0.00272	 114	 114	 114	 0	 0	 1	-30	 30;
	 197	 172	 0.00231	 0.00744	 0.00077	 114	 114	 114	 0	 0	 1	-30	 30;
	 189	 14	 0.00653	 0.02058	 0.00222	 114	 114	 114	 0	 0	 1	-30	 30;
	 216	 102	 0.01231	 0.04033	 0.00408	 114	 114	 114	 0	 0	 1	-30	 30;
	 42	 187	 0.02587	 0.06818	 0.00737	 97	 97	 97	 0	 0	 1	-30	 30;
	 223	 192	 0.0176	 0.05686	 0.00587	 114	 114	 114	 0	 0	 1	-30	 30;
	 187	 126	 0.01975	 0.05372	 0.00566	 97	 97	 97	 0	 0	 1	-30	 30;
	 218	 126	 0.0019	 0.00595	 0.00067	 114	 114	 114	 0	 0	 1	-30	 30;
	 82	 218	 0.00264	 0.0086	 0.0009	 114	 114	 114	 0	 0	 1	-30	 30;
	 217	 218	 8e-05	 0.00017	 2e-05	 72	 72	 72	 0	 0	 1	-30	 30;
	 24	 52	 0.00562	 0.01736	 0.00193	 97	 97	 97	 0	 0	 1	-30	 30;
	 219	 142	 0.00174	 0.00504	 0.00052	 97	 97	 97	 0	 0	 1	-30	 30;
...
];

mpc_regionR1.gencost = [
%	2           startup     shutdown    n           c(n-1)...c0 
	 2	 0	 0	 3	 0	 132.33	 0;
	 2	 0	 0	 3	 0	 128.21	 0;
	 2	 0	 0	 3	 0	 128.21	 0;
	 2	 0	 0	 3	 0	 0	 0;
	 2	 0	 0	 3	 0	 0	 0;
	 2	 0	 0	 3	 0	 0	 0;
	 2	 0	 0	 3	 0	 0	 0;
	 2	 0	 0	 3	 0	 0	 0;
	 2	 0	 0	 3	 0	 0	 0;
	 2	 0	 0	 3	 0	 0	 0;
	 2	 0	 0	 3	 0	 0	 0;
	 2	 0	 0	 3	 0	 0	 0;
	 2	 0	 0	 3	 0	 0	 0;
	 2	 0	 0	 3	 0	 0	 0;
	 2	 0	 0	 3	 0	 0	 0;
	 2	 0	 0	 3	 0	 0	 0;
	 2	 0	 0	 3	 0	 132.33	 0;
	 2	 0	 0	 3	 0	 0	 0;
	 2	 0	 0	 3	 0	 0	 0;
	 2	 0	 0	 3	 0	 0	 0;
	 2	 0	 0	 3	 0	 128.21	 0;
	 2	 0	 0	 3	 0	 0	 0;
	 2	 0	 0	 3	 0	 0	 0;
	 2	 0	 0	 3	 0	 0	 0;
	 2	 0	 0	 3	 0	 0	 0;
	 2	 0	 0	 3	 0	 0	 0;
];


% -------------------- mpc_regionR2 --------------------

mpc_regionR2.version = '2';
mpc_regionR2.baseMVA = 100.0000;
mpc_regionR2.bus = [
%	bus_i       type        Pd          Qd          Gs          Bs          area        Vm          Va          baseKV      zone        Vmax        Vmin        
	 1	 1	 0	 0	 0	 0	 1	 1.03	 0	 220	 1	 1.11	 0.95;
	 2	 1	 0	 0	 0	 0	 1	 1.03	 0	 220	 1	 1.11	 0.95;
	 3	 1	 0	 0	 0	 0	 1	 1	 0	 400	 1	 1.05	 0.95;
	 4	 1	 0	 0	 0	 0	 1	 1	 0	 400	 1	 1.05	 0.95;
	 5	 1	 0	 0	 0	 0	 1	 1.03	 0	 220	 1	 1.11	 0.95;
	 6	 1	 0	 0	 0	 0	 1	 1.03	 0	 220	 1	 1.11	 0.95;
	 7	 1	 0	 0	 0	 0	 1	 1.03	 0	 220	 1	 1.11	 0.95;
	 8	 1	 0	 0	 0	 0	 1	 1.03	 0	 220	 1	 1.11	 0.95;
	 9	 1	 0	 0	 0	 0	 1	 1.03	 0	 220	 1	 1.11	 0.95;
	 10	 1	 0	 0	 0	 0	 1	 1	 0	 400	 1	 1.05	 0.95;
	 11	 1	 0	 0	 0	 0	 1	 1	 0	 400	 1	 1.05	 0.95;
	 12	 1	 0	 0	 0	 0	 1	 1	 0	 400	 1	 1.05	 0.95;
	 13	 1	 0	 0	 0	 0	 1	 1.03	 0	 220	 1	 1.11	 0.95;
	 14	 1	 0	 0	 0	 0	 1	 1.03	 0	 220	 1	 1.11	 0.95;
	 15	 1	 0	 0	 0	 0	 1	 1.03	 0	 220	 1	 1.11	 0.95;
	 16	 1	 0	 0	 0	 0	 1	 1.03	 0	 220	 1	 1.11	 0.95;
	 17	 1	 0	 0	 0	 0	 1	 1	 0	 400	 1	 1.05	 0.95;
	 18	 1	 0	 0	 0	 0	 1	 1	 0	 400	 1	 1.05	 0.95;
	 19	 1	 0	 0	 0	 0	 1	 1.03	 0	 220	 1	 1.11	 0.95;
	 20	 1	 0	 0	 0	 0	 1	 1.03	 0	 220	 1	 1.11	 0.95;
	 21	 1	 0	 0	 0	 0	 1	 1.03	 0	 220	 1	 1.11	 0.95;
	 22	 1	 6.09	 1	 0	 0	 1	 1.035	 0	 110	 1	 1.12	 0.95;
	 23	 1	 6.09	 2.01	 0	 0	 1	 1.035	 0	 110	 1	 1.12	 0.95;
	 24	 1	 2.94	 2.51	 0	 0	 1	 1.035	 0	 110	 1	 1.12	 0.95;
	 25	 1	 6.29	 5.83	 0	 0	 1	 1.035	 0	 110	 1	 1.12	 0.95;
	 26	 1	 7.72	 1.51	 0	 0	 1	 1.035	 0	 110	 1	 1.12	 0.95;
	 27	 1	 5.59	 1	 0	 0	 1	 1.035	 0	 110	 1	 1.12	 0.95;
	 28	 1	 5.05	 0.5	 0	 0	 1	 1.035	 0	 110	 1	 1.12	 0.95;
	 29	 1	 5.05	 0.5	 0	 0	 1	 1.035	 0	 110	 1	 1.12	 0.95;
	 30	 1	 20.71	 5.63	 0	 0	 1	 1.035	 0	 110	 1	 1.12	 0.95;
	 31	 1	 3.15	 0.5	 0	 0	 1	 1.035	 0	 110	 1	 1.12	 0.95;
	 32	 1	 24.36	 6.53	 0	 0	 1	 1.035	 0	 110	 1	 1.12	 0.95;
	 33	 2	 0.23	 0.4	 0	 0	 1	 1.035	 0	 110	 1	 1.12	 0.95;
	 34	 1	 6.37	 0.5	 0	 0	 1	 1.035	 0	 110	 1	 1.12	 0.95;
	 35	 1	 26.39	 6.23	 0	 0	 1	 1.035	 0	 110	 1	 1.12	 0.95;
	 36	 1	 10.15	 1	 0	 0	 1	 1.035	 0	 110	 1	 1.12	 0.95;
	 37	 1	 12.18	 2.01	 0	 0	 1	 1.035	 0	 110	 1	 1.12	 0.95;
	 38	 1	 5.08	 2.51	 0	 0	 1	 1.035	 0	 110	 1	 1.12	 0.95;
	 39	 1	 13.04	 0.7	 0	 0	 1	 1.035	 0	 110	 1	 1.12	 0.95;
	 40	 1	 2.93	 0.4	 0	 0	 1	 1.035	 0	 110	 1	 1.12	 0.95;
	 41	 1	 7.78	 1	 0	 0	 1	 1.035	 0	 110	 1	 1.12	 0.95;
	 42	 1	 9.08	 2.11	 0	 0	 1	 1.035	 0	 110	 1	 1.12	 0.95;
	 43	 1	 9.08	 2.11	 0	 0	 1	 1.035	 0	 110	 1	 1.12	 0.95;
	 44	 1	 0.3	 0	 0	 0	 1	 1.035	 0	 110	 1	 1.12	 0.95;
	 45	 1	 0.81	 0.2	 0	 0	 1	 1.035	 0	 110	 1	 1.12	 0.95;
	 46	 1	 0	 0	 0	 0	 1	 1.035	 0	 110	 1	 1.12	 0.95;
	 47	 1	 11.17	 2.01	 0	 0	 1	 1.035	 0	 110	 1	 1.12	 0.95;
	 48	 1	 13.2	 2.01	 0	 0	 1	 1.035	 0	 110	 1	 1.12	 0.95;
	 49	 1	 3.05	 1	 0	 0	 1	 1.035	 0	 110	 1	 1.12	 0.95;
	 50	 1	 4.97	 1.31	 0	 0	 1	 1.035	 0	 110	 1	 1.12	 0.95;
	 51	 1	 24.36	 7.03	 0	 0	 1	 1.035	 0	 110	 1	 1.12	 0.95;
	 52	 1	 15.23	 1.61	 0	 0	 1	 1.035	 0	 110	 1	 1.12	 0.95;
	 53	 1	 8.19	 0.1	 0	 0	 1	 1.035	 0	 110	 1	 1.12	 0.95;
	 54	 1	 4.67	 0	 0	 0	 1	 1.035	 0	 110	 1	 1.12	 0.95;
	 55	 1	 12.59	 2.41	 0	 0	 1	 1.035	 0	 110	 1	 1.12	 0.95;
	 56	 1	 15.53	 4.02	 0	 0	 1	 1.035	 0	 110	 1	 1.12	 0.95;
	 57	 1	 0	 0	 0	 0	 1	 1.035	 0	 110	 1	 1.12	 0.95;
	 58	 1	 9.14	 2.41	 0	 0	 1	 1.035	 0	 110	 1	 1.12	 0.95;
	 59	 1	 7.51	 1.91	 0	 0	 1	 1.035	 0	 110	 1	 1.12	 0.95;
	 60	 1	 10.66	 1	 0	 0	 1	 1.035	 0	 110	 1	 1.12	 0.95;
	 61	 1	 8.12	 1	 0	 0	 1	 1.035	 0	 110	 1	 1.12	 0.95;
	 62	 1	 2.34	 0.9	 0	 0	 1	 1.035	 0	 110	 1	 1.12	 0.95;
	 63	 1	 10.66	 2.01	 0	 0	 1	 1.035	 0	 110	 1	 1.12	 0.95;
	 64	 1	 20.69	 6.23	 0	 0	 1	 1.035	 0	 110	 1	 1.12	 0.95;
	 65	 1	 20.69	 6.23	 0	 0	 1	 1.035	 0	 110	 1	 1.12	 0.95;
	 66	 1	 1.22	 0.2	 0	 0	 1	 1.035	 0	 110	 1	 1.12	 0.95;
	 67	 1	 0	 0	 0	 0	 1	 1.035	 0	 110	 1	 1.12	 0.95;
	 68	 1	 0	 0	 0	 0	 1	 1.035	 0	 110	 1	 1.12	 0.95;
	 69	 1	 0	 0	 0	 45	 1	 1	 0	 16	 1	 1.25	 0.75;
	 70	 1	 0	 0	 0	 0	 1	 1	 0	 32	 1	 1.25	 0.75;
	 71	 1	 22.33	 4.02	 0	 0	 1	 1.035	 0	 110	 1	 1.12	 0.95;
	 72	 1	 0	 0	 0	 0	 1	 1.035	 0	 110	 1	 1.12	 0.95;
	 73	 1	 15.54	 2.61	 0	 0	 1	 1.035	 0	 110	 1	 1.12	 0.95;
	 74	 1	 0	 0	 0	 0	 1	 1.035	 0	 110	 1	 1.12	 0.95;
	 75	 1	 3.53	 1.11	 0	 0	 1	 1.035	 0	 110	 1	 1.12	 0.95;
	 76	 1	 0	 0	 0	 0	 1	 1.035	 0	 110	 1	 1.12	 0.95;
	 77	 1	 0	 0	 0	 0	 1	 1.035	 0	 110	 1	 1.12	 0.95;
	 78	 1	 0	 0	 0	 15	 1	 1	 0	 16	 1	 1.25	 0.75;
	 79	 1	 0	 0	 0	 15	 1	 1	 0	 16	 1	 1.25	 0.75;
	 80	 1	 10.66	 3.01	 0	 0	 1	 1.035	 0	 110	 1	 1.12	 0.95;
	 81	 1	 6.4	 0.8	 0	 0	 1	 1.035	 0	 110	 1	 1.12	 0.95;
	 82	 1	 3.55	 0.5	 0	 0	 1	 1.035	 0	 110	 1	 1.12	 0.95;
	 83	 1	 5.96	 0.9	 0	 0	 1	 1.035	 0	 110	 1	 1.12	 0.95;
	 84	 1	 6.17	 0.9	 0	 0	 1	 1.035	 0	 110	 1	 1.12	 0.95;
	 85	 1	 0	 0	 0	 0	 1	 1.035	 0	 110	 1	 1.12	 0.95;
	 86	 1	 0	 0	 0	 0	 1	 1.035	 0	 110	 1	 1.12	 0.95;
	 87	 1	 0	 0	 0	 0	 1	 1.035	 0	 110	 1	 1.12	 0.95;
	 88	 1	 0	 0	 0	 0	 1	 1	 0	 16	 1	 1.25	 0.75;
	 89	 2	 45.13	 21.81	 0	 0	 1	 1.035	 0	 110	 1	 1.12	 0.95;
	 90	 2	 32.5	 15.68	 0	 0	 1	 1.035	 0	 110	 1	 1.12	 0.95;
	 91	 2	 94.17	 53.55	 0	 0	 1	 1.035	 0	 110	 1	 1.12	 0.95;
	 92	 2	 77.9	 45.62	 0	 0	 1	 1.035	 0	 110	 1	 1.12	 0.95;
	 93	 1	 11.67	 2.01	 0	 0	 1	 1.035	 0	 110	 1	 1.12	 0.95;
	 94	 1	 11.17	 2.51	 0	 0	 1	 1.035	 0	 110	 1	 1.12	 0.95;
	 95	 1	 7.61	 2.51	 0	 0	 1	 1.035	 0	 110	 1	 1.12	 0.95;
	 96	 1	 18.68	 5.63	 0	 0	 1	 1.035	 0	 110	 1	 1.12	 0.95;
	 97	 1	 18.27	 5.63	 0	 0	 1	 1.035	 0	 110	 1	 1.12	 0.95;
	 98	 1	 4.45	 0.2	 0	 0	 1	 1.035	 0	 110	 1	 1.12	 0.95;
	 99	 1	 8.59	 0.8	 0	 0	 1	 1.035	 0	 110	 1	 1.12	 0.95;
	 100	 1	 5.36	 0.2	 0	 0	 1	 1.035	 0	 110	 1	 1.12	 0.95;
	 101	 1	 0	 0	 0	 0	 1	 1.035	 0	 110	 1	 1.12	 0.95;
	 102	 1	 0	 0	 0	 0	 1	 1.035	 0	 110	 1	 1.12	 0.95;
	 103	 1	 5.55	 1.21	 0	 0	 1	 1.035	 0	 110	 1	 1.12	 0.95;
	 104	 1	 5.55	 1.21	 0	 0	 1	 1.035	 0	 110	 1	 1.12	 0.95;
	 105	 1	 16.24	 4.02	 0	 0	 1	 1.035	 0	 110	 1	 1.12	 0.95;
	 106	 1	 38.78	 8.04	 0	 0	 1	 1.035	 0	 110	 1	 1.12	 0.95;
	 107	 1	 15.26	 1	 0	 0	 1	 1.035	 0	 110	 1	 1.12	 0.95;
	 108	 1	 3.03	 0.3	 0	 0	 1	 1.035	 0	 110	 1	 1.12	 0.95;
	 109	 1	 0	 0	 0	 0	 1	 1.035	 0	 110	 1	 1.12	 0.95;
	 110	 1	 0	 0	 0	 0	 1	 1.035	 0	 110	 1	 1.12	 0.95;
	 111	 1	 0	 0	 0	 0	 1	 1.035	 0	 110	 1	 1.12	 0.95;
	 112	 1	 0	 0	 0	 0	 1	 1	 0	 32	 1	 1.25	 0.75;
	 113	 1	 7.21	 1.61	 0	 0	 1	 1.035	 0	 110	 1	 1.12	 0.95;
	 114	 1	 9.1	 1	 0	 0	 1	 1.035	 0	 110	 1	 1.12	 0.95;
	 115	 1	 11.22	 0.7	 0	 0	 1	 1.035	 0	 110	 1	 1.12	 0.95;
	 116	 1	 11.02	 1.11	 0	 0	 1	 1.035	 0	 110	 1	 1.12	 0.95;
	 117	 1	 21.19	 6.93	 0	 0	 1	 1.035	 0	 110	 1	 1.12	 0.95;
	 118	 1	 21.19	 6.93	 0	 0	 1	 1.035	 0	 110	 1	 1.12	 0.95;
	 119	 1	 16.24	 2.01	 0	 0	 1	 1.035	 0	 110	 1	 1.12	 0.95;
	 120	 2	 9.14	 2.01	 0	 0	 1	 1.035	 0	 110	 1	 1.12	 0.95;
	 121	 1	 22.74	 4.62	 0	 0	 1	 1.035	 0	 110	 1	 1.12	 0.95;
	 122	 1	 15.84	 4.02	 0	 0	 1	 1.035	 0	 110	 1	 1.12	 0.95;
	 123	 1	 7.78	 0.1	 0	 0	 1	 1.035	 0	 110	 1	 1.12	 0.95;
	 124	 1	 6.09	 3.22	 0	 0	 1	 1.035	 0	 110	 1	 1.12	 0.95;
	 125	 1	 36.75	 8.44	 0	 0	 1	 1.035	 0	 110	 1	 1.12	 0.95;
	 126	 1	 19.49	 4.72	 0	 0	 1	 1.035	 0	 110	 1	 1.12	 0.95;
	 127	 1	 10.11	 1.41	 0	 0	 1	 1.035	 0	 110	 1	 1.12	 0.95;
	 128	 1	 18.69	 3.52	 0	 0	 1	 1.035	 0	 110	 1	 1.12	 0.95;
	 129	 1	 11.37	 1.81	 0	 0	 1	 1.035	 0	 110	 1	 1.12	 0.95;
	 130	 1	 5.15	 0.5	 0	 0	 1	 1.035	 0	 110	 1	 1.12	 0.95;
	 131	 1	 0.81	 0.2	 0	 0	 1	 1.035	 0	 110	 1	 1.12	 0.95;
	 132	 1	 5.96	 0.3	 0	 0	 1	 1.035	 0	 110	 1	 1.12	 0.95;
	 133	 1	 19.79	 6.03	 0	 0	 1	 1.035	 0	 110	 1	 1.12	 0.95;
	 134	 1	 6.5	 1.11	 0	 0	 1	 1.035	 0	 110	 1	 1.12	 0.95;
	 135	 1	 6.5	 1.11	 0	 0	 1	 1.035	 0	 110	 1	 1.12	 0.95;
	 136	 1	 6.6	 1	 0	 0	 1	 1.035	 0	 110	 1	 1.12	 0.95;
	 137	 1	 7	 1	 0	 0	 1	 1.035	 0	 110	 1	 1.12	 0.95;
	 138	 2	 2.02	 0.6	 0	 0	 1	 1.035	 0	 110	 1	 1.12	 0.95;
	 139	 1	 0	 0	 0	 0	 1	 1.035	 0	 110	 1	 1.12	 0.95;
	 140	 1	 8.58	 2.61	 0	 0	 1	 1.035	 0	 110	 1	 1.12	 0.95;
	 141	 1	 0	 0	 0	 0	 1	 1.035	 0	 110	 1	 1.12	 0.95;
	 142	 1	 29.27	 6.43	 0	 0	 1	 1.035	 0	 110	 1	 1.12	 0.95;
	 143	 1	 29.27	 8.74	 0	 0	 1	 1.035	 0	 110	 1	 1.12	 0.95;
	 144	 1	 20.39	 5.12	 0	 0	 1	 1.035	 0	 110	 1	 1.12	 0.95;
	 145	 1	 20.39	 5.12	 0	 0	 1	 1.035	 0	 110	 1	 1.12	 0.95;
	 146	 1	 0	 0	 0	 0	 1	 1.035	 0	 110	 1	 1.12	 0.95;
	 147	 1	 14.13	 3.22	 0	 0	 1	 1.035	 0	 110	 1	 1.12	 0.95;
	 148	 1	 20.18	 5.02	 0	 0	 1	 1.035	 0	 110	 1	 1.12	 0.95;
	 149	 1	 20.18	 5.02	 0	 0	 1	 1.035	 0	 110	 1	 1.12	 0.95;
	 150	 1	 2.03	 1	 0	 0	 1	 1.035	 0	 110	 1	 1.12	 0.95;
	 151	 1	 4.54	 1.41	 0	 0	 1	 1.035	 0	 110	 1	 1.12	 0.95;
	 152	 1	 4.54	 1.41	 0	 0	 1	 1.035	 0	 110	 1	 1.12	 0.95;
	 153	 1	 18.17	 5.63	 0	 0	 1	 1.035	 0	 110	 1	 1.12	 0.95;
	 154	 1	 18.17	 5.83	 0	 0	 1	 1.035	 0	 110	 1	 1.12	 0.95;
	 155	 1	 16.65	 5.12	 0	 0	 1	 1.035	 0	 110	 1	 1.12	 0.95;
	 156	 1	 16.65	 5.12	 0	 0	 1	 1.035	 0	 110	 1	 1.12	 0.95;
	 157	 1	 13.12	 3.92	 0	 0	 1	 1.035	 0	 110	 1	 1.12	 0.95;
	 158	 1	 13.12	 3.92	 0	 0	 1	 1.035	 0	 110	 1	 1.12	 0.95;
	 159	 1	 25.23	 7.54	 0	 0	 1	 1.035	 0	 110	 1	 1.12	 0.95;
	 160	 1	 37.34	 11.15	 0	 0	 1	 1.035	 0	 110	 1	 1.12	 0.95;
	 161	 1	 1.32	 0.2	 0	 0	 1	 1.035	 0	 110	 1	 1.12	 0.95;
	 162	 1	 4.04	 0.8	 0	 0	 1	 1.035	 0	 110	 1	 1.12	 0.95;
	 163	 1	 4.04	 0.8	 0	 0	 1	 1.035	 0	 110	 1	 1.12	 0.95;
	 164	 1	 14.13	 3.52	 0	 0	 1	 1.035	 0	 110	 1	 1.12	 0.95;
	 165	 1	 14.13	 3.52	 0	 0	 1	 1.035	 0	 110	 1	 1.12	 0.95;
	 166	 1	 7.06	 2.11	 0	 0	 1	 1.035	 0	 110	 1	 1.12	 0.95;
	 167	 1	 7.06	 2.11	 0	 0	 1	 1.035	 0	 110	 1	 1.12	 0.95;
	 168	 1	 17.66	 4.42	 0	 0	 1	 1.035	 0	 110	 1	 1.12	 0.95;
	 169	 1	 17.66	 4.42	 0	 0	 1	 1.035	 0	 110	 1	 1.12	 0.95;
	 170	 1	 16.15	 4.52	 0	 0	 1	 1.035	 0	 110	 1	 1.12	 0.95;
	 171	 1	 16.15	 4.52	 0	 0	 1	 1.035	 0	 110	 1	 1.12	 0.95;
	 172	 1	 10.15	 1.71	 0	 0	 1	 1.035	 0	 110	 1	 1.12	 0.95;
	 173	 1	 10.25	 1.61	 0	 0	 1	 1.035	 0	 110	 1	 1.12	 0.95;
	 174	 1	 23.21	 6.93	 0	 0	 1	 1.035	 0	 110	 1	 1.12	 0.95;
	 175	 1	 23.21	 6.93	 0	 0	 1	 1.035	 0	 110	 1	 1.12	 0.95;
	 176	 1	 14.63	 3.32	 0	 0	 1	 1.035	 0	 110	 1	 1.12	 0.95;
	 177	 1	 14.63	 3.32	 0	 0	 1	 1.035	 0	 110	 1	 1.12	 0.95;
	 178	 1	 14.63	 3.82	 0	 0	 1	 1.035	 0	 110	 1	 1.12	 0.95;
	 179	 1	 14.63	 3.82	 0	 0	 1	 1.035	 0	 110	 1	 1.12	 0.95;
	 180	 1	 29.27	 9.34	 0	 0	 1	 1.035	 0	 110	 1	 1.12	 0.95;
	 181	 1	 29.27	 9.34	 0	 0	 1	 1.035	 0	 110	 1	 1.12	 0.95;
	 182	 1	 11.1	 3.32	 0	 0	 1	 1.035	 0	 110	 1	 1.12	 0.95;
	 183	 1	 11.1	 3.32	 0	 0	 1	 1.035	 0	 110	 1	 1.12	 0.95;
	 184	 1	 7.11	 1.41	 0	 0	 1	 1.035	 0	 110	 1	 1.12	 0.95;
	 185	 1	 7.11	 1.41	 0	 0	 1	 1.035	 0	 110	 1	 1.12	 0.95;
	 186	 1	 10.09	 2.51	 0	 0	 1	 1.035	 0	 110	 1	 1.12	 0.95;
	 187	 1	 10.09	 2.51	 0	 0	 1	 1.035	 0	 110	 1	 1.12	 0.95;
	 188	 1	 30.78	 9.24	 0	 0	 1	 1.035	 0	 110	 1	 1.12	 0.95;
	 189	 1	 30.78	 9.24	 0	 0	 1	 1.035	 0	 110	 1	 1.12	 0.95;
	 190	 1	 26.24	 8.64	 0	 0	 1	 1.035	 0	 110	 1	 1.12	 0.95;
	 191	 1	 26.24	 8.64	 0	 0	 1	 1.035	 0	 110	 1	 1.12	 0.95;
	 192	 1	 5.86	 0.6	 0	 0	 1	 1.035	 0	 110	 1	 1.12	 0.95;
	 193	 2	 53.29	 50.64	 0	 0	 1	 1.035	 0	 110	 1	 1.12	 0.95;
	 194	 2	 55.3	 52.65	 0	 0	 1	 1.035	 0	 110	 1	 1.12	 0.95;
	 195	 1	 16.15	 5.02	 0	 0	 1	 1.035	 0	 110	 1	 1.12	 0.95;
	 196	 1	 18.17	 5.63	 0	 0	 1	 1.035	 0	 110	 1	 1.12	 0.95;
	 197	 1	 15.14	 4.42	 0	 0	 1	 1.035	 0	 110	 1	 1.12	 0.95;
	 198	 1	 15.14	 4.42	 0	 0	 1	 1.035	 0	 110	 1	 1.12	 0.95;
	 199	 1	 25.23	 8.84	 0	 0	 1	 1.035	 0	 110	 1	 1.12	 0.95;
	 200	 1	 25.23	 8.84	 0	 0	 1	 1.035	 0	 110	 1	 1.12	 0.95;
...
];

mpc_regionR2.gen = [
%	bus         Pg          Qg          Qmax        Qmin        Vg          mBase       status      Pmax        Pmin        Pc1         Pc2         Qc1min      Qc1max      Qc2min      Qc2max      ramp_agc    ramp_10     ramp_30     ramp_q      apf         
	 33	 3	 1.875	 3.75	 0	 1.035	 5	 1	 5	 1;
	 33	 3	 1.875	 3.75	 0	 1.035	 5	 1	 5	 1;
	 33	 3	 1.875	 3.75	 0	 1.035	 5	 1	 5	 1;
	 33	 3	 1.875	 3.75	 0	 1.035	 5	 1	 5	 1;
	 89	 33.25	 17.5	 57	-22	 1.035	 68.8	 1	 51.5	 15;
	 90	 35	 17.5	 57	-22	 1.035	 68.8	 1	 55	 15;
	 91	 35	 17.5	 57	-22	 1.035	 68.8	 1	 55	 15;
	 91	 40	 21.5	 71	-28	 1.035	 87.5	 1	 77	 3;
	 92	 35	 17.5	 57	-22	 1.035	 68.8	 1	 55	 15;
	 92	 35	 17.5	 57	-22	 1.035	 68.8	 1	 55	 15;
	 120	 4.8	 2	 4	 0	 1.035	 8.4	 1	 6.6	 3;
	 138	 3.7	 1.5	 3	 0	 1.035	 5.6	 1	 4.4	 3;
	 193	 44.5	 18.5	 35	 2	 1.035	 62.5	 1	 52	 37;
	 193	 20	 12.5	 23	 2	 1.035	 37.5	 1	 30	 10;
	 193	 77.5	 45.5	 85	 6	 1.035	 150	 1	 105	 50;
	 193	 77.5	 45.5	 85	 6	 1.035	 150	 1	 105	 50;
	 194	 20	 12.5	 23	 2	 1.035	 37.5	 1	 30	 10;
	 194	 20	 12.5	 23	 2	 1.035	 37.5	 1	 30	 10;
	 194	 20	 13.5	 25	 2	 1.035	 37.5	 1	 30	 10;
	 194	 96.5	 45.5	 85	 6	 1.035	 150	 1	 125	 68;
	 194	 77.5	 45.5	 85	 6	 1.035	 150	 1	 105	 50;
	 215	 1.4	 0.35	 0.7	 0	 1.035	 1.9	 1	 1.54	 1.26;
	 218	 22	 10	 18	 2	 1.035	 37.5	 1	 35	 9;
	 218	 14.5	 16	 30	 2	 1.035	 37.5	 1	 20	 9;
	 219	 22	 10	 18	 2	 1.035	 37.5	 1	 35	 9;
	 219	 22	 10	 18	 2	 1.035	 37.5	 1	 35	 9;
	 219	 22	 10	 18	 2	 1.035	 37.5	 1	 35	 9;
	 219	 63.5	 35.5	 65	 6	 1.035	 121.3	 1	 97	 30;
	 220	 22	 10	 18	 2	 1.035	 37.5	 1	 35	 9;
	 220	 19.5	 10	 18	 2	 1.035	 37.5	 1	 30	 9;
	 220	 18.5	 8	 14	 2	 1.035	 31.5	 1	 28	 9;
	 238	 4	 2.35	 4.5	 0.2	 1.035	 5.8	 1	 4.4	 3.6;
];

mpc_regionR2.branch = [
%	fbus        tbus        r           x           b           rateA       rateB       rateC       ratio       angle       status      angmin      angmax      
	 4	 3	 0.00069	 0.03946	 0	 250	 250	 250	 0.9999	 0	 1	-30	 30;
	 12	 10	 0.00088	 0.05709	 0	 330	 330	 330	 0.9999	 0	 1	-30	 30;
	 18	 17	 0.0007	 0.03652	 0	 250	 250	 250	 0.9999	 0	 1	-30	 30;
	 20	 5	 0.00525	 0.03847	 0.06053	 351	 351	 351	 0	 0	 1	-30	 30;
	 14	 7	 0.01262	 0.09326	 0.14324	 342	 342	 342	 0	 0	 1	-30	 30;
	 6	 1	 0.00558	 0.04147	 0.0629	 354	 354	 354	 0	 0	 1	-30	 30;
	 21	 5	 0.00089	 0.0063	 0.0108	 346	 346	 346	 0	 0	 1	-30	 30;
	 16	 6	 0.00442	 0.02374	 0.04477	 303	 303	 303	 0	 0	 1	-30	 30;
	 2	 1	 0.00079	 0.07524	 0	 160	 160	 160	 0.9999	 0	 1	-30	 30;
	 67	 2	 0.00081	-0.00714	 0	 160	 160	 160	 1.00521	 0	 1	-30	 30;
	 69	 2	-0.00024	 0.15701	 0	 269	 269	 269	 0.94157	 0	 1	-30	 30;
	 68	 1	 0.00165	 0.0686	 0	 160	 160	 160	 1.02676	 0	 1	-30	 30;
	 68	 4	 0.00066	 0.0269	 0	 250	 250	 250	 1.10119	 0	 1	-30	 30;
	 70	 4	-0.00044	 0.00942	 0	 50	 50	 50	 0.98438	 0	 1	-30	 30;
	 8	 5	 0.00059	 0.07897	 0	 160	 160	 160	 0.9999	 0	 1	-30	 30;
	 75	 8	 0.0006	-0.01352	 0	 160	 160	 160	 1.07516	 0	 1	-30	 30;
	 78	 8	-0.00467	 0.16067	 0	 16	 16	 16	 0.94157	 0	 1	-30	 30;
	 9	 6	 0.00062	 0.08296	 0	 160	 160	 160	 0.9999	 0	 1	-30	 30;
	 76	 9	 0.00062	-0.01547	 0	 160	 160	 160	 1.07516	 0	 1	-30	 30;
	 79	 9	-0.00056	 0.17867	 0	 16	 16	 16	 0.94157	 0	 1	-30	 30;
	 77	 7	 0.00165	 0.06775	 0	 160	 160	 160	 1.09622	 0	 1	-30	 30;
	 86	 12	 0.00011	-0.00462	 0	 330	 330	 330	 1.09089	 0	 1	-30	 30;
	 88	 12	 0.00452	 0.07233	 0	 63	 63	 63	 0.96037	 0	 1	-30	 30;
	 99	 13	 0.00155	 0.06612	 0	 160	 160	 160	 1.08759	 0	 1	-30	 30;
	 100	 14	 0.00157	 0.06612	 0	 160	 160	 160	 1.09829	 0	 1	-30	 30;
	 105	 15	 0.00165	 0.06901	 0	 160	 160	 160	 1.09028	 0	 1	-30	 30;
	 106	 16	 0.00165	 0.06901	 0	 160	 160	 160	 1.09028	 0	 1	-30	 30;
	 110	 18	 0.00067	 0.023	 0	 250	 250	 250	 1.11802	 0	 1	-30	 30;
	 112	 18	-0.00044	 0.01252	 0	 50	 50	 50	 0.98438	 0	 1	-30	 30;
	 129	 20	 0.00165	 0.06818	 0	 160	 160	 160	 1.13473	 0	 1	-30	 30;
	 205	 21	 0.00165	 0.06901	 0	 160	 160	 160	 1.09851	 0	 1	-30	 30;
	 241	 106	 0.07463	 0.13025	 0.01244	 83	 83	 83	 0	 0	 1	-30	 30;
	 122	 77	 0.01223	 0.02868	 0.00295	 102	 102	 102	 0	 0	 1	-30	 30;
	 55	 29	 0.01959	 0.06355	 0.00659	 119	 119	 119	 0	 0	 1	-30	 30;
	 230	 167	 0.00686	 0.02207	 0.00232	 119	 119	 119	 0	 0	 1	-30	 30;
	 121	 230	 0.00554	 0.01802	 0.00184	 120	 120	 120	 0	 0	 1	-30	 30;
	 230	 233	 0.00273	 0.0095	 0.001	 123	 123	 123	 0	 0	 1	-30	 30;
	 72	 67	 0.02355	 0.06107	 0.00629	 107	 107	 107	 0	 0	 1	-30	 30;
	 71	 68	 0.02339	 0.0619	 0.00629	 108	 108	 108	 0	 0	 1	-30	 30;
	 96	 67	 0.01545	 0.04488	 0.00434	 113	 113	 113	 0	 0	 1	-30	 30;
	 131	 68	 0.01967	 0.05959	 0.00587	 116	 116	 116	 0	 0	 1	-30	 30;
	 36	 105	 0.03182	 0.05851	 0.00559	 90	 90	 90	 0	 0	 1	-30	 30;
	 37	 106	 0.03256	 0.06124	 0.00549	 90	 90	 90	 0	 0	 1	-30	 30;
	 126	 68	 0.00251	 0.00811	 0.00086	 119	 119	 119	 0	 0	 1	-30	 30;
	 133	 105	 0.04058	 0.07612	 0.00678	 90	 90	 90	 0	 0	 1	-30	 30;
	 167	 126	 0.01398	 0.04524	 0.0048	 119	 119	 119	 0	 0	 1	-30	 30;
	 133	 49	 0.02165	 0.0386	 0.00351	 90	 90	 90	 0	 0	 1	-30	 30;
	 129	 35	 0.03083	 0.10008	 0.01034	 119	 119	 119	 0	 0	 1	-30	 30;
	 97	 75	 0.00645	 0.02025	 0.00223	 90	 90	 90	 0	 0	 1	-30	 30;
	 115	 93	 0.03702	 0.12132	 0.0121	 120	 120	 120	 0	 0	 1	-30	 30;
	 192	 129	 0.02256	 0.07322	 0.0075	 119	 119	 119	 0	 0	 1	-30	 30;
	 238	 61	 0.05926	 0.10455	 0.00969	 89	 89	 89	 0	 0	 1	-30	 30;
	 129	 30	 0.02744	 0.08264	 0.00995	 115	 115	 115	 0	 0	 1	-30	 30;
	 128	 132	 0.04893	 0.15504	 0.01573	 118	 118	 118	 0	 0	 1	-30	 30;
	 50	 104	 0.00711	 0.02281	 0.00242	 119	 119	 119	 0	 0	 1	-30	 30;
	 139	 125	 0.01381	 0.04492	 0.00795	 111	 111	 111	 0	 0	 1	-30	 30;
	 193	 52	 0.01736	 0.04533	 0.00922	 90	 90	 90	 0	 0	 1	-30	 30;
	 43	 58	 0.00919	 0.02977	 0.00316	 111	 111	 111	 0	 0	 1	-30	 30;
	 59	 228	 0.00631	 0.02038	 0.00216	 111	 111	 111	 0	 0	 1	-30	 30;
	 232	 166	 0.00455	 0.01471	 0.00154	 119	 119	 119	 0	 0	 1	-30	 30;
	 23	 75	 0.00628	 0.02036	 0.00216	 119	 119	 119	 0	 0	 1	-30	 30;
	 22	 85	 0.00643	 0.02076	 0.0022	 119	 119	 119	 0	 0	 1	-30	 30;
	 214	 75	 0.00356	 0.01154	 0.00122	 119	 119	 119	 0	 0	 1	-30	 30;
	 220	 155	 0.00582	 0.01883	 0.002	 119	 119	 119	 0	 0	 1	-30	 30;
	 219	 156	 0.00582	 0.01883	 0.002	 119	 119	 119	 0	 0	 1	-30	 30;
	 156	 142	 0.00555	 0.01796	 0.00293	 111	 111	 111	 0	 0	 1	-30	 30;
	 143	 76	 0.00607	 0.01973	 0.00291	 120	 120	 120	 0	 0	 1	-30	 30;
	 206	 77	 0.00382	 0.02652	 0.00281	 137	 137	 137	 0	 0	 1	-30	 30;
	 189	 76	 0.01348	 0.03592	 0.0151	 90	 90	 90	 0	 0	 1	-30	 30;
	 180	 75	 0.01121	 0.03006	 0.01231	 90	 90	 90	 0	 0	 1	-30	 30;
	 201	 188	 0.0047	 0.01191	 0.00126	 90	 90	 90	 0	 0	 1	-30	 30;
	 194	 144	 0.01017	 0.02827	 0.02773	 90	 90	 90	 0	 0	 1	-30	 30;
	 138	 75	 0.00161	 0.00521	 0.00055	 111	 111	 111	 0	 0	 1	-30	 30;
	 141	 77	 0.00212	 0.00684	 0.00073	 111	 111	 111	 0	 0	 1	-30	 30;
	 194	 178	 0.01826	 0.04974	 0.00528	 90	 90	 90	 0	 0	 1	-30	 30;
	 198	 213	 0.00916	 0.02956	 0.00314	 111	 111	 111	 0	 0	 1	-30	 30;
	 195	 194	 0.00421	 0.01103	 0.00117	 90	 90	 90	 0	 0	 1	-30	 30;
	 196	 193	 0.00421	 0.01103	 0.00117	 90	 90	 90	 0	 0	 1	-30	 30;
	 219	 203	 0.00596	 0.01931	 0.00205	 119	 119	 119	 0	 0	 1	-30	 30;
	 219	 152	 0.00118	 0.0038	 0.0004	 119	 119	 119	 0	 0	 1	-30	 30;
	 197	 155	 0.00241	 0.00778	 0.00083	 111	 111	 111	 0	 0	 1	-30	 30;
	 167	 68	 0.01404	 0.04546	 0.00483	 119	 119	 119	 0	 0	 1	-30	 30;
	 231	 222	 0.0045	 0.0145	 0.00154	 111	 111	 111	 0	 0	 1	-30	 30;
	 183	 222	 0.01103	 0.02812	 0.00298	 90	 90	 90	 0	 0	 1	-30	 30;
	 222	 46	 0.00037	 0.0012	 0.00013	 111	 111	 111	 0	 0	 1	-30	 30;
	 67	 221	 0.00855	 0.02759	 0.00293	 111	 111	 111	 0	 0	 1	-30	 30;
	 224	 221	 0.0017	 0.00427	 0.00045	 90	 90	 90	 0	 0	 1	-30	 30;
	 193	 224	 0.00843	 0.02047	 0.00217	 90	 90	 90	 0	 0	 1	-30	 30;
	 221	 45	 0.00045	 0.00115	 0.00012	 107	 107	 107	 0	 0	 1	-30	 30;
	 224	 64	 0.00026	 0.00066	 7e-05	 90	 90	 90	 0	 0	 1	-30	 30;
	 162	 188	 0.00616	 0.02064	 0.00971	 111	 111	 111	 0	 0	 1	-30	 30;
	 154	 216	 0.00083	 0.00356	 0.02543	 136	 136	 136	 0	 0	 1	-30	 30;
	 200	 145	 0.00034	 0.00216	 0.01054	 109	 109	 109	 0	 0	 1	-30	 30;
	 77	 87	 0.01254	 0.04055	 0.00431	 119	 119	 119	 0	 0	 1	-30	 30;
	 168	 85	 0.00439	 0.01417	 0.0015	 119	 119	 119	 0	 0	 1	-30	 30;
	 220	 227	 0.01264	 0.04099	 0.00435	 119	 119	 119	 0	 0	 1	-30	 30;
	 227	 159	 0.00047	 0.0015	 0.00016	 119	 119	 119	 0	 0	 1	-30	 30;
	 227	 73	 0.00329	 0.00826	 0.00088	 90	 90	 90	 0	 0	 1	-30	 30;
	 207	 42	 0.00363	 0.01174	 0.00125	 119	 119	 119	 0	 0	 1	-30	 30;
	 156	 117	 0.00101	 0.00587	 0.03106	 95	 95	 95	 0	 0	 1	-30	 30;
	 75	 234	 0.00493	 0.01634	 0.00609	 111	 111	 111	 0	 0	 1	-30	 30;
	 76	 165	 0.00401	 0.01293	 0.00137	 111	 111	 111	 0	 0	 1	-30	 30;
	 175	 205	 0.00031	 0.00199	 0.00973	 98	 98	 98	 0	 0	 1	-30	 30;
	 188	 181	 0.00279	 0.00805	 0.00815	 90	 90	 90	 0	 0	 1	-30	 30;
	 209	 140	 0.00316	 0.01018	 0.00108	 111	 111	 111	 0	 0	 1	-30	 30;
	 159	 237	 0.00056	 0.00182	 0.00019	 120	 120	 120	 0	 0	 1	-30	 30;
	 202	 193	 0.00404	 0.01024	 0.00109	 90	 90	 90	 0	 0	 1	-30	 30;
	 216	 151	 0.00769	 0.0249	 0.00264	 119	 119	 119	 0	 0	 1	-30	 30;
	 212	 163	 0.00154	 0.00541	 0.00499	 111	 111	 111	 0	 0	 1	-30	 30;
	 211	 193	 0.00575	 0.01855	 0.00197	 111	 111	 111	 0	 0	 1	-30	 30;
	 190	 189	 0.00167	 0.00597	 0.00617	 111	 111	 111	 0	 0	 1	-30	 30;
	 194	 191	 0.0118	 0.03881	 0.01131	 111	 111	 111	 0	 0	 1	-30	 30;
	 169	 236	 0.00358	 0.01155	 0.00122	 119	 119	 119	 0	 0	 1	-30	 30;
	 228	 160	 0.00047	 0.0015	 0.00016	 119	 119	 119	 0	 0	 1	-30	 30;
	 228	 74	 0.00391	 0.00826	 0.00088	 90	 90	 90	 0	 0	 1	-30	 30;
	 170	 235	 0.00181	 0.00621	 0.00438	 111	 111	 111	 0	 0	 1	-30	 30;
	 171	 164	 0.00169	 0.00619	 0.0081	 111	 111	 111	 0	 0	 1	-30	 30;
	 219	 208	 0.00318	 0.01028	 0.00109	 119	 119	 119	 0	 0	 1	-30	 30;
	 218	 28	 0.00995	 0.03021	 0.00321	 116	 116	 116	 0	 0	 1	-30	 30;
	 194	 157	 0.01377	 0.03899	 0.00414	 90	 90	 90	 0	 0	 1	-30	 30;
	 216	 225	 0.01243	 0.03156	 0.00335	 90	 90	 90	 0	 0	 1	-30	 30;
	 225	 65	 0.00026	 0.00066	 7e-05	 90	 90	 90	 0	 0	 1	-30	 30;
	 158	 153	 0.0028	 0.00903	 0.00096	 111	 111	 111	 0	 0	 1	-30	 30;
	 204	 167	 0.00701	 0.0227	 0.00241	 119	 119	 119	 0	 0	 1	-30	 30;
	 215	 166	 0.00393	 0.01271	 0.00135	 119	 119	 119	 0	 0	 1	-30	 30;
	 210	 106	 0.01963	 0.06331	 0.00672	 111	 111	 111	 0	 0	 1	-30	 30;
	 179	 106	 0.01202	 0.03521	 0.00986	 90	 90	 90	 0	 0	 1	-30	 30;
	 166	 148	 0.00882	 0.02843	 0.00302	 119	 119	 119	 0	 0	 1	-30	 30;
	 167	 103	 0.02083	 0.06719	 0.00713	 119	 119	 119	 0	 0	 1	-30	 30;
	 206	 199	 0.00064	 0.0041	 0.02001	 109	 109	 109	 0	 0	 1	-30	 30;
	 67	 231	 0.00412	 0.01331	 0.00141	 111	 111	 111	 0	 0	 1	-30	 30;
	 186	 174	 0.00041	 0.00259	 0.01264	 98	 98	 98	 0	 0	 1	-30	 30;
	 118	 187	 0.0006	 0.00374	 0.01827	 98	 98	 98	 0	 0	 1	-30	 30;
	 215	 182	 0.0042	 0.01131	 0.0012	 90	 90	 90	 0	 0	 1	-30	 30;
	 160	 87	 0.00396	 0.01276	 0.00135	 119	 119	 119	 0	 0	 1	-30	 30;
	 155	 176	 0.00028	 0.00179	 0.01597	 137	 137	 137	 0	 0	 1	-30	 30;
	 205	 177	 0.00041	 0.00264	 0.0236	 165	 165	 165	 0	 0	 1	-30	 30;
	 147	 168	 0.00049	 0.00313	 0.02806	 137	 137	 137	 0	 0	 1	-30	 30;
	 172	 121	 0.01372	 0.03719	 0.00363	 110	 110	 110	 0	 0	 1	-30	 30;
	 95	 33	 0.01504	 0.03075	 0.00298	 90	 90	 90	 0	 0	 1	-30	 30;
	 113	 95	 0.01182	 0.01967	 0.00207	 87	 87	 87	 0	 0	 1	-30	 30;
	 35	 32	 0.00917	 0.02983	 0.00307	 120	 120	 120	 0	 0	 1	-30	 30;
	 119	 32	 0.00785	 0.02545	 0.00262	 119	 119	 119	 0	 0	 1	-30	 30;
	 173	 124	 0.0224	 0.03926	 0.00372	 89	 89	 89	 0	 0	 1	-30	 30;
	 184	 173	 0.00595	 0.01157	 0.0011	 90	 90	 90	 0	 0	 1	-30	 30;
	 137	 24	 0.04719	 0.08273	 0.00785	 89	 89	 89	 0	 0	 1	-30	 30;
	 122	 120	 0.00496	 0.01421	 0.00145	 113	 113	 113	 0	 0	 1	-30	 30;
	 161	 33	 0.00289	 0.00926	 0.00096	 119	 119	 119	 0	 0	 1	-30	 30;
	 54	 57	 0.00504	 0.00901	 0.00084	 90	 90	 90	 0	 0	 1	-30	 30;
	 131	 51	 0.00942	 0.03041	 0.00315	 119	 119	 119	 0	 0	 1	-30	 30;
	 56	 94	 0.02017	 0.06405	 0.00675	 118	 118	 118	 0	 0	 1	-30	 30;
	 97	 30	 0.03529	 0.10818	 0.011	 90	 90	 90	 0	 0	 1	-30	 30;
	 38	 120	 0.00331	 0.01091	 0.0011	 120	 120	 120	 0	 0	 1	-30	 30;
	 38	 119	 0.00347	 0.01132	 0.00117	 120	 120	 120	 0	 0	 1	-30	 30;
	 217	 25	 0.03909	 0.06843	 0.00649	 89	 89	 89	 0	 0	 1	-30	 30;
	 218	 149	 0.00574	 0.01668	 0.00177	 113	 113	 113	 0	 0	 1	-30	 30;
	 185	 136	 0.03289	 0.05744	 0.00521	 89	 89	 89	 0	 0	 1	-30	 30;
	 51	 48	 0.00901	 0.02917	 0.00302	 119	 119	 119	 0	 0	 1	-30	 30;
	 226	 71	 0.01522	 0.08255	 0.00509	 133	 133	 133	 0	 0	 1	-30	 30;
	 80	 226	 0.00791	 0.02572	 0.00265	 120	 120	 120	 0	 0	 1	-30	 30;
	 66	 226	 0.00339	 0.00603	 0.00054	 90	 90	 90	 0	 0	 1	-30	 30;
	 161	 56	 0.00694	 0.02256	 0.00234	 90	 90	 90	 0	 0	 1	-30	 30;
	 150	 33	 0.00355	 0.0114	 0.00118	 119	 119	 119	 0	 0	 1	-30	 30;
	 57	 55	 0.00694	 0.02281	 0.0023	 120	 120	 120	 0	 0	 1	-30	 30;
	 150	 50	 0.01372	 0.04471	 0.0046	 120	 120	 120	 0	 0	 1	-30	 30;
	 113	 93	 0.00545	 0.01752	 0.00183	 119	 119	 119	 0	 0	 1	-30	 30;
	 52	 105	 0.00607	 0.01757	 0.00407	 90	 90	 90	 0	 0	 1	-30	 30;
	 125	 105	 0.01061	 0.03423	 0.00363	 111	 111	 111	 0	 0	 1	-30	 30;
	 47	 96	 0.0057	 0.01851	 0.00193	 119	 119	 119	 0	 0	 1	-30	 30;
	 135	 129	 0.0195	 0.03545	 0.00353	 91	 91	 91	 0	 0	 1	-30	 30;
	 239	 26	 0.01361	 0.02471	 0.00246	 91	 91	 91	 0	 0	 1	-30	 30;
	 240	 81	 0.02264	 0.03769	 0.00397	 87	 87	 87	 0	 0	 1	-30	 30;
	 128	 60	 0.05455	 0.09471	 0.00914	 89	 89	 89	 0	 0	 1	-30	 30;
	 82	 44	 0.00851	 0.02793	 0.00285	 120	 120	 120	 0	 0	 1	-30	 30;
	 128	 31	 0.00843	 0.02769	 0.00279	 120	 120	 120	 0	 0	 1	-30	 30;
	 63	 61	 0.01099	 0.02322	 0.00218	 90	 90	 90	 0	 0	 1	-30	 30;
	 27	 134	 0.03183	 0.05769	 0.00576	 91	 91	 91	 0	 0	 1	-30	 30;
	 49	 44	 0.03273	 0.0719	 0.00681	 83	 83	 83	 0	 0	 1	-30	 30;
	 102	 108	 0.00835	 0.0262	 0.00292	 90	 90	 90	 0	 0	 1	-30	 30;
	 100	 98	 0.0076	 0.02545	 0.00249	 121	 121	 121	 0	 0	 1	-30	 30;
	 101	 89	 0.01182	 0.03	 0.00305	 106	 106	 106	 0	 0	 1	-30	 30;
	 111	 90	 0.0162	 0.05405	 0.00527	 121	 121	 121	 0	 0	 1	-30	 30;
	 109	 39	 0.01992	 0.06438	 0.00667	 119	 119	 119	 0	 0	 1	-30	 30;
	 223	 53	 0.01066	 0.01868	 0.00186	 89	 89	 89	 0	 0	 1	-30	 30;
	 223	 39	 0.01587	 0.05388	 0.00533	 122	 122	 122	 0	 0	 1	-30	 30;
	 223	 127	 0.01074	 0.03496	 0.00361	 120	 120	 120	 0	 0	 1	-30	 30;
	 101	 34	 0.02314	 0.07413	 0.00785	 119	 119	 119	 0	 0	 1	-30	 30;
	 229	 98	 0.01835	 0.06025	 0.00608	 120	 120	 120	 0	 0	 1	-30	 30;
	 229	 116	 0.03033	 0.09967	 0.01006	 120	 120	 120	 0	 0	 1	-30	 30;
	 130	 229	 0.00182	 0.00603	 0.00059	 121	 121	 121	 0	 0	 1	-30	 30;
	 238	 53	 0.03678	 0.0638	 0.00623	 89	 89	 89	 0	 0	 1	-30	 30;
	 114	 99	 0.00198	 0.0062	 0.00069	 117	 117	 117	 0	 0	 1	-30	 30;
	 123	 99	 0.00562	 0.01711	 0.0018	 90	 90	 90	 0	 0	 1	-30	 30;
	 40	 101	 0.00306	 0.01	 0.00103	 120	 120	 120	 0	 0	 1	-30	 30;
	 100	 92	 0.00959	 0.03099	 0.0032	 119	 119	 119	 0	 0	 1	-30	 30;
	 110	 91	 0.01066	 0.03463	 0.00358	 120	 120	 120	 0	 0	 1	-30	 30;
	 107	 84	 0.0043	 0.01298	 0.00157	 115	 115	 115	 0	 0	 1	-30	 30;
	 123	 108	 0.00479	 0.01603	 0.00156	 121	 121	 121	 0	 0	 1	-30	 30;
	 111	 83	 0.01132	 0.03777	 0.00369	 121	 121	 121	 0	 0	 1	-30	 30;
	 110	 101	 0.01289	 0.04116	 0.00443	 119	 119	 119	 0	 0	 1	-30	 30;
...
];

mpc_regionR2.gencost = [
%	2           startup     shutdown    n           c(n-1)...c0 
	 2	 0	 0	 3	 0	 0	 0;
	 2	 0	 0	 3	 0	 0	 0;
	 2	 0	 0	 3	 0	 0	 0;
	 2	 0	 0	 3	 0	 0	 0;
	 2	 0	 0	 3	 0	 0	 0;
	 2	 0	 0	 3	 0	 0	 0;
	 2	 0	 0	 3	 0	 0	 0;
	 2	 0	 0	 3	 0	 0	 0;
	 2	 0	 0	 3	 0	 0	 0;
	 2	 0	 0	 3	 0	 0	 0;
	 2	 0	 0	 3	 0	 0	 0;
	 2	 0	 0	 3	 0	 0	 0;
	 2	 0	 0	 3	 0	 0	 0;
	 2	 0	 0	 3	 0	 0	 0;
	 2	 0	 0	 3	 0	 0	 0;
	 2	 0	 0	 3	 0	 0	 0;
	 2	 0	 0	 3	 0	 0	 0;
	 2	 0	 0	 3	 0	 0	 0;
	 2	 0	 0	 3	 0	 0	 0;
	 2	 0	 0	 3	 0	 0	 0;
	 2	 0	 0	 3	 0	 0	 0;
	 2	 0	 0	 3	 0	 0	 0;
	 2	 0	 0	 3	 0	 0	 0;
	 2	 0	 0	 3	 0	 0	 0;
	 2	 0	 0	 3	 0	 0	 0;
	 2	 0	 0	 3	 0	 0	 0;
	 2	 0	 0	 3	 0	 0	 0;
	 2	 0	 0	 3	 0	 0	 0;
	 2	 0	 0	 3	 0	 0	 0;
	 2	 0	 0	 3	 0	 0	 0;
	 2	 0	 0	 3	 0	 0	 0;
	 2	 0	 0	 3	 0	 0	 0;
];


% -------------------- mpc_regionR3 --------------------

mpc_regionR3.version = '2';
mpc_regionR3.baseMVA = 100.0000;
mpc_regionR3.bus = [
%	bus_i       type        Pd          Qd          Gs          Bs          area        Vm          Va          baseKV      zone        Vmax        Vmin        
	 1	 1	 0	 0	 0	 0	 1	 1	 0	 400	 1	 1.05	 0.95;
	 2	 1	 0	 0	 0	 0	 1	 1.03	 0	 220	 4	 1.11	 0.95;
	 3	 2	 0	 0	 0	 0	 1	 1.03	 0	 220	 4	 1.11	 0.95;
	 4	 2	 0	 0	 0	 0	 1	 1.03	 0	 220	 4	 1.11	 0.95;
	 5	 2	 12.06	 30.14	 0	 0	 1	 1.03	 0	 220	 4	 1.11	 0.95;
	 6	 2	 14.66	 30.65	 0	 0	 1	 1.03	 0	 220	 4	 1.11	 0.95;
	 7	 2	 38.18	 64.3	 0	 0	 1	 1	 0	 400	 4	 1.05	 0.95;
	 8	 1	 0	 0	 0	 0	 1	 1.03	 0	 220	 4	 1.11	 0.95;
	 9	 1	 0	 0	 0	 0	 1	 1.03	 0	 220	 4	 1.11	 0.95;
	 10	 1	 0	 0	 0	 0	 1	 1.03	 0	 220	 5	 1.11	 0.95;
	 11	 1	 0	 0	 0	 0	 1	 1.03	 0	 220	 5	 1.11	 0.95;
	 12	 1	 0	 0	 0	 0	 1	 1	 0	 400	 5	 1.05	 0.95;
	 13	 1	 0	 0	 0	 0	 1	 1	 0	 400	 5	 1.05	 0.95;
	 14	 1	 0	 0	 0	 0	 1	 1	 0	 400	 5	 1.05	 0.95;
	 15	 1	 0	 0	 0	 0	 1	 1	 0	 400	 5	 1.05	 0.95;
	 16	 1	 0	 0	 0	 0	 1	 1	 0	 400	 5	 1.05	 0.95;
	 17	 1	 0	 0	 0	 0	 1	 1.03	 0	 220	 5	 1.11	 0.95;
	 18	 1	 0	 0	 0	 0	 1	 1.03	 0	 220	 5	 1.11	 0.95;
	 19	 1	 0	 0	 0	 0	 1	 1.03	 0	 220	 5	 1.11	 0.95;
	 20	 1	 0	 0	 0	 0	 1	 1.03	 0	 220	 5	 1.11	 0.95;
	 21	 1	 0	 0	 0	 0	 1	 1	 0	 400	 5	 1.05	 0.95;
	 22	 1	 0	 0	 0	 0	 1	 1	 0	 400	 5	 1.05	 0.95;
	 23	 1	 0	 0	 0	 0	 1	 1	 0	 400	 5	 1.05	 0.95;
	 24	 1	 0	 0	 0	 0	 1	 1.03	 0	 220	 5	 1.11	 0.95;
	 25	 1	 0	 0	 0	 0	 1	 1.03	 0	 220	 5	 1.11	 0.95;
	 26	 1	 0	 0	 0	 0	 1	 1.03	 0	 220	 5	 1.11	 0.95;
	 27	 1	 0	 0	 0	 0	 1	 1	 0	 400	 5	 1.05	 0.95;
	 28	 1	 0	 0	 0	 70	 1	 1	 0	 400	 5	 1.25	 0.75;
	 29	 1	 0	 0	 0	 0	 1	 1	 0	 400	 5	 1.05	 0.95;
	 30	 1	 0	 0	 0	 0	 1	 1.03	 0	 220	 5	 1.11	 0.95;
	 31	 1	 0	 0	 0	 0	 1	 1.03	 0	 220	 5	 1.11	 0.95;
	 32	 1	 0	 0	 0	 0	 1	 1.03	 0	 220	 5	 1.11	 0.95;
	 33	 1	 0	 0	 0	 0	 1	 1.03	 0	 220	 5	 1.11	 0.95;
	 34	 2	 2.01	 40.19	 0	 0	 1	 1	 0	 400	 5	 1.05	 0.95;
	 35	 2	 5.55	 30.14	 0	 0	 1	 1	 0	 400	 5	 1.05	 0.95;
	 36	 1	 0	 0	 0	 0	 1	 1.03	 0	 220	 5	 1.11	 0.95;
	 37	 1	 0	 0	 0	 0	 1	 1.03	 0	 220	 5	 1.11	 0.95;
	 38	 1	 9.6	 0.8	 0	 0	 1	 1.035	 0	 110	 1	 1.12	 0.95;
	 39	 1	 5.15	 0.4	 0	 0	 1	 1.035	 0	 110	 1	 1.12	 0.95;
	 40	 1	 7.56	 1.68	 0	 0	 1	 1.035	 0	 110	 4	 1.12	 0.95;
	 41	 1	 11.48	 0.17	 0	 0	 1	 1.035	 0	 110	 4	 1.12	 0.95;
	 42	 1	 0	 0	 0	 0	 1	 1.035	 0	 110	 4	 1.12	 0.95;
	 43	 1	 27.67	 7.31	 0	 0	 1	 1.035	 0	 110	 4	 1.12	 0.95;
	 44	 1	 1.59	 0.43	 0	 0	 1	 1.035	 0	 110	 4	 1.12	 0.95;
	 45	 1	 6.3	 2.65	 0	 0	 1	 1.035	 0	 110	 4	 1.12	 0.95;
	 46	 1	 3.71	 1.09	 0	 0	 1	 1.035	 0	 110	 4	 1.12	 0.95;
	 47	 2	 32.98	 32.06	 0	 0	 1	 1.035	 0	 110	 4	 1.12	 0.95;
	 48	 1	 10.57	 4.63	 0	 0	 1	 1.035	 0	 110	 4	 1.12	 0.95;
	 49	 1	 21.65	 5.21	 0	 0	 1	 1.035	 0	 110	 4	 1.12	 0.95;
	 50	 2	 13.34	-0.07	 0	 0	 1	 1.035	 0	 110	 4	 1.12	 0.95;
	 51	 1	 10.97	 7.1	 0	 0	 1	 1.035	 0	 110	 4	 1.12	 0.95;
	 52	 2	 102.49	 76.36	 0	 0	 1	 1.035	 0	 110	 4	 1.12	 0.95;
...